@<TRIPOS>MOLECULE
*****
 168 180 0 0 0
SMALL
GASTEIGER

@<TRIPOS>ATOM
      1 N1          4.4598   27.6110   10.1353 N.2     1  RES11      -0.2856
      2 N2          4.6837   29.1911   12.5603 N.2     1  RES11      -0.2856
      3 N3          7.7839   22.2902    8.7712 N.2     1  RES11      -0.2856
      4 N4         10.2053   21.9329   10.4313 N.2     1  RES11      -0.2856
      5 N5          1.6209   21.9234   10.7534 N.2     1  RES11      -0.2856
      6 N6          1.0928   20.5980   13.2859 N.2     1  RES11      -0.2856
      7 N7         11.1857   24.9332   16.1272 N.2     1  RES11      -0.2856
      8 N8          9.6426   27.3823   16.3907 N.2     1  RES11      -0.2856
      9 N9          8.5007   19.1110   15.9394 N.2     1  RES11      -0.2856
     10 N10         5.8556   18.9476   17.2424 N.2     1  RES11      -0.2856
     11 N11         2.1612   24.1518   18.4838 N.2     1  RES11      -0.2856
     12 N12         3.6328   26.6750   18.4164 N.2     1  RES11      -0.2856
     13 C1          4.2512   25.2115   10.3101 C.ar    1  RES11      -0.0062
     14 C2          5.5472   24.9546    9.8310 C.ar    1  RES11      -0.0445
     15 H2          6.1408   25.6781    9.6673 H       1  RES11       0.0630
     16 C3          5.9728   23.6542    9.5937 C.ar    1  RES11      -0.0062
     17 C4          5.0676   22.5913    9.8082 C.ar    1  RES11      -0.0445
     18 H4          5.3378   21.6971    9.6396 H       1  RES11       0.0630
     19 C5          3.7847   22.8517   10.2634 C.ar    1  RES11      -0.0062
     20 C6          3.3763   24.1426   10.5225 C.ar    1  RES11      -0.0445
     21 H6          2.4972   24.3043   10.8453 H       1  RES11       0.0630
     22 C7          3.7790   26.6047   10.4845 C.2     1  RES11       0.0297
     23 H7          2.9257   26.7498   10.8774 H       1  RES11       0.0831
     24 C8          7.3395   23.4318    9.0845 C.2     1  RES11       0.0297
     25 H8          7.9144   24.1813    8.9866 H       1  RES11       0.0831
     26 C9          2.8244   21.7245   10.4599 C.2     1  RES11       0.0297
     27 H9          3.1328   20.8327   10.3609 H       1  RES11       0.0831
     28 C10        10.5623   23.2888   14.5223 C.ar    1  RES11      -0.0062
     29 C11        10.0512   22.3963   15.4955 C.ar    1  RES11      -0.0445
     30 H11        10.1108   22.6388   16.4131 H       1  RES11       0.0630
     31 C12         9.5092   21.2649   15.1903 C.ar    1  RES11      -0.0062
     32 C13         9.4156   20.7835   13.7946 C.ar    1  RES11      -0.0445
     33 H13         9.0438   19.9402   13.5663 H       1  RES11       0.0630
     34 C14         9.9238   21.6866   12.8300 C.ar    1  RES11      -0.0062
     35 C15        10.5126   22.8918   13.1971 C.ar    1  RES11      -0.0445
     36 H15        10.8883   23.4504   12.5270 H       1  RES11       0.0630
     37 C16        11.1474   24.6029   14.9342 C.2     1  RES11       0.0297
     38 H16        11.4928   25.1897   14.2727 H       1  RES11       0.0831
     39 C17         8.9927   20.2846   16.2381 C.2     1  RES11       0.0297
     40 H17         9.0296   20.5411   17.1537 H       1  RES11       0.0831
     41 C18         9.7930   21.2157   11.3831 C.2     1  RES11       0.0297
     42 H18         9.3957   20.3724   11.1975 H       1  RES11       0.0831
     43 C19         2.9816   22.1461   17.4418 C.ar    1  RES11      -0.0062
     44 C20         2.0738   22.2389   16.3574 C.ar    1  RES11      -0.0445
     45 H20         1.4416   22.9480   16.3342 H       1  RES11       0.0630
     46 C21         2.0976   21.3194   15.3393 C.ar    1  RES11      -0.0062
     47 C22         3.0318   20.2846   15.3738 C.ar    1  RES11      -0.0445
     48 H22         3.0449   19.6416   14.6760 H       1  RES11       0.0630
     49 C23         3.9458   20.1852   16.4217 C.ar    1  RES11      -0.0062
     50 C24         3.8772   21.1163   17.4631 C.ar    1  RES11      -0.0445
     51 H24         4.4694   21.0295   18.2015 H       1  RES11       0.0630
     52 C25         2.9370   23.1662   18.5000 C.2     1  RES11       0.0297
     53 H25         3.5301   23.0745   19.2365 H       1  RES11       0.0831
     54 C26         1.1572   21.4417   14.2024 C.2     1  RES11       0.0297
     55 H26         0.5789   22.1925   14.1702 H       1  RES11       0.0831
     56 C27         4.9280   19.0956   16.3534 C.2     1  RES11       0.0297
     57 H27         4.8809   18.4785   15.6321 H       1  RES11       0.0831
     58 C28         5.8755   28.4209   14.5134 C.ar    1  RES11      -0.0062
     59 C29         4.7055   28.0857   15.2336 C.ar    1  RES11      -0.0445
     60 H29         3.8479   28.2923   14.8787 H       1  RES11       0.0630
     61 C30         4.8184   27.4476   16.4676 C.ar    1  RES11      -0.0062
     62 C31         6.0543   27.1613   16.9851 C.ar    1  RES11      -0.0445
     63 H31         6.1210   26.7428   17.8344 H       1  RES11       0.0630
     64 C32         7.2396   27.4803   16.2695 C.ar    1  RES11      -0.0062
     65 C33         7.1340   28.1237   15.0565 C.ar    1  RES11      -0.0445
     66 H33         7.9201   28.3696   14.5842 H       1  RES11       0.0630
     67 C34         5.7770   29.0035   13.1649 C.2     1  RES11       0.0297
     68 H34         6.5807   29.2516   12.7233 H       1  RES11       0.0831
     69 C35         3.5903   27.1641   17.2565 C.2     1  RES11       0.0297
     70 H35         2.7441   27.3577   16.8720 H       1  RES11       0.0831
     71 C36         8.5115   27.1767   16.9055 C.2     1  RES11       0.0297
     72 H36         8.4876   26.7955   17.7747 H       1  RES11       0.0831
     73 C37         3.8846   28.9276   10.2685 C.3     1  RES11       0.0730
     74 H37         2.9541   28.8545   10.6298 H       1  RES11       0.0565
     75 C38         4.7435   29.7463   11.2295 C.3     1  RES11       0.0730
     76 H38         5.6925   29.7294   10.9136 H       1  RES11       0.0565
     77 C39         4.2484   31.2083   11.2557 C.3     1  RES11      -0.0286
     78 H39A        3.3428   31.2368   11.6563 H       1  RES11       0.0286
     79 H39B        4.8497   31.7428   11.8313 H       1  RES11       0.0286
     80 C40         4.1973   31.8383    9.8615 C.3     1  RES11      -0.0510
     81 H40A        3.8338   32.7582    9.9256 H       1  RES11       0.0266
     82 H40B        5.1136   31.8974    9.4902 H       1  RES11       0.0266
     83 C41         3.3377   31.0200    8.9533 C.3     1  RES11      -0.0510
     84 H41A        3.3400   31.4195    8.0476 H       1  RES11       0.0266
     85 H41B        2.4064   31.0260    9.2875 H       1  RES11       0.0266
     86 C42         3.8477   29.5766    8.8784 C.3     1  RES11      -0.0286
     87 H42A        4.7560   29.5678    8.4872 H       1  RES11       0.0286
     88 H42B        3.2549   29.0478    8.2845 H       1  RES11       0.0286
     89 C43         9.1525   22.2660    8.2226 C.3     1  RES11       0.0730
     90 H43         9.5347   23.1904    8.2354 H       1  RES11       0.0565
     91 C44        10.0231   21.3387    9.0847 C.3     1  RES11       0.0730
     92 H44         9.5688   20.4532    9.1765 H       1  RES11       0.0565
     93 C45        11.4028   21.1356    8.4445 C.3     1  RES11      -0.0286
     94 H45A       11.8986   21.9922    8.4573 H       1  RES11       0.0286
     95 H45B       11.9156   20.4778    8.9780 H       1  RES11       0.0286
     96 C46        11.2893   20.6504    7.0360 C.3     1  RES11      -0.0510
     97 H46A       10.8628   19.7575    7.0296 H       1  RES11       0.0266
     98 H46B       12.1937   20.5587    6.6455 H       1  RES11       0.0266
     99 C47        10.4638   21.6110    6.1803 C.3     1  RES11      -0.0510
    100 H47A       10.3804   21.2544    5.2605 H       1  RES11       0.0266
    101 H47B       10.9139   22.4912    6.1333 H       1  RES11       0.0266
    102 C48         9.0756   21.7702    6.8055 C.3     1  RES11      -0.0286
    103 H48A        8.5444   22.4069    6.2656 H       1  RES11       0.0286
    104 H48B        8.6096   20.8960    6.7906 H       1  RES11       0.0286
    105 C49         0.7205   20.7846   10.8957 C.3     1  RES11       0.0730
    106 H49         1.2571   19.9438   10.8155 H       1  RES11       0.0565
    107 C50         0.0778   20.8099   12.2447 C.3     1  RES11       0.0730
    108 H50        -0.3661   21.6936   12.3861 H       1  RES11       0.0565
    109 C51        -0.9674   19.6743   12.3968 C.3     1  RES11      -0.0286
    110 H51A       -0.5136   18.7948   12.3563 H       1  RES11       0.0286
    111 H51B       -1.4160   19.7505   13.2760 H       1  RES11       0.0286
    112 C52        -2.0043   19.7639   11.2871 C.3     1  RES11      -0.0510
    113 H52A       -2.6504   19.0197   11.3767 H       1  RES11       0.0266
    114 H52B       -2.5029   20.6149   11.3682 H       1  RES11       0.0266
    115 C53        -1.3403   19.6953    9.9405 C.3     1  RES11      -0.0510
    116 H53A       -2.0261   19.7716    9.2299 H       1  RES11       0.0266
    117 H53B       -0.8910   18.8194    9.8381 H       1  RES11       0.0266
    118 C54        -0.3241   20.8000    9.7796 C.3     1  RES11      -0.0286
    119 H54A       -0.7889   21.6725    9.7826 H       1  RES11       0.0286
    120 H54B        0.1305   20.6992    8.9055 H       1  RES11       0.0286
    121 C55        11.7998   26.1841   16.4537 C.3     1  RES11       0.0730
    122 H55        12.1057   26.6374   15.6171 H       1  RES11       0.0565
    123 C56        10.8216   27.0941   17.1921 C.3     1  RES11       0.0730
    124 H56        10.5166   26.6057   18.0116 H       1  RES11       0.0565
    125 C57        11.4783   28.3450   17.6381 C.3     1  RES11      -0.0286
    126 H57A       10.8344   28.8861   18.1609 H       1  RES11       0.0286
    127 H57B       11.7510   28.8756   16.8463 H       1  RES11       0.0286
    128 C58        12.7221   28.0428   18.5067 C.3     1  RES11      -0.0510
    129 H58A       13.1613   28.8967   18.7585 H       1  RES11       0.0266
    130 H58B       12.4377   27.5896   19.3389 H       1  RES11       0.0266
    131 C59        13.6974   27.1820   17.7853 C.3     1  RES11      -0.0510
    132 H59A       14.4610   26.9747   18.3807 H       1  RES11       0.0266
    133 H59B       14.0439   27.6634   16.9936 H       1  RES11       0.0266
    134 C60        13.0107   25.8714   17.3415 C.3     1  RES11      -0.0286
    135 H60A       13.6551   25.3127   16.8378 H       1  RES11       0.0286
    136 H60B       12.7187   25.3654   18.1375 H       1  RES11       0.0286
    137 C61         8.1987   18.2748   17.1131 C.3     1  RES11       0.0730
    138 H61         8.3713   18.7772   17.9625 H       1  RES11       0.0565
    139 C62         6.7245   17.8173   17.0299 C.3     1  RES11       0.0730
    140 H62         6.5381   17.3928   16.1421 H       1  RES11       0.0565
    141 C63         6.4748   16.8120   18.1716 C.3     1  RES11      -0.0286
    142 H63A        6.6204   17.2628   19.0423 H       1  RES11       0.0286
    143 H63B        5.5336   16.5074   18.1417 H       1  RES11       0.0286
    144 C64         7.4064   15.5903   18.0670 C.3     1  RES11      -0.0510
    145 H64A        7.2248   14.9684   18.8161 H       1  RES11       0.0266
    146 H64B        7.2333   15.1089   17.2198 H       1  RES11       0.0266
    147 C65         8.8480   16.0295   18.1140 C.3     1  RES11      -0.0510
    148 H65A        9.4411   15.2424   18.0009 H       1  RES11       0.0266
    149 H65B        9.0438   16.4336   18.9954 H       1  RES11       0.0266
    150 C66         9.1261   17.0520   16.9979 C.3     1  RES11      -0.0286
    151 H66A       10.0682   17.3507   17.0534 H       1  RES11       0.0286
    152 H66B        8.9927   16.6198   16.1165 H       1  RES11       0.0286
    153 C67         2.1958   25.0804   19.6078 C.3     1  RES11       0.0730
    154 H67         2.9683   24.8489   20.1990 H       1  RES11       0.0565
    155 C68         2.3550   26.5221   19.1164 C.3     1  RES11       0.0730
    156 H68         1.6033   26.7463   18.4960 H       1  RES11       0.0565
    157 C69         2.3428   27.4866   20.3044 C.3     1  RES11      -0.0286
    158 H69A        2.4348   28.4153   19.9770 H       1  RES11       0.0286
    159 H69B        3.1130   27.2909   20.8968 H       1  RES11       0.0286
    160 C70         1.0395   27.3475   21.0974 C.3     1  RES11      -0.0510
    161 H70A        0.2753   27.6212   20.5298 H       1  RES11       0.0266
    162 H70B        1.0670   27.9480   21.8849 H       1  RES11       0.0266
    163 C71         0.8380   25.8956   21.5673 C.3     1  RES11      -0.0510
    164 H71A        1.5409   25.6641   22.2242 H       1  RES11       0.0266
    165 H71B       -0.0397   25.8152   22.0193 H       1  RES11       0.0266
    166 C72         0.8933   24.9188   20.4017 C.3     1  RES11      -0.0286
    167 H72A        0.1220   25.0773   19.8042 H       1  RES11       0.0286
    168 H72B        0.8315   23.9915   20.7453 H       1  RES11       0.0286
@<TRIPOS>BOND
     1     1    22    2
     2     2    67    2
     3     3    24    2
     4     4    41    2
     5     5    26    2
     6     6    54    2
     7     7    37    2
     8     8    71    2
     9     9    39    2
    10    10    56    2
    11    11    52    2
    12    12    69    2
    13    13    14   ar
    14    14    15    1
    15    16    14   ar
    16    17    16   ar
    17    18    17    1
    18    19    17   ar
    19    20    13   ar
    20    21    20    1
    21    22    13    1
    22    23    22    1
    23    24    16    1
    24    25    24    1
    25    26    19    1
    26    27    26    1
    27    28    29   ar
    28    29    30    1
    29    31    29   ar
    30    32    31   ar
    31    33    32    1
    32    34    32   ar
    33    35    28   ar
    34    36    35    1
    35    37    28    1
    36    38    37    1
    37    39    31    1
    38    40    39    1
    39    41    34    1
    40    42    41    1
    41    43    44   ar
    42    44    45    1
    43    46    44   ar
    44    47    46   ar
    45    48    47    1
    46    49    47   ar
    47    50    43   ar
    48    51    50    1
    49    52    43    1
    50    53    52    1
    51    54    46    1
    52    55    54    1
    53    56    49    1
    54    57    56    1
    55    58    59   ar
    56    59    60    1
    57    61    59   ar
    58    62    61   ar
    59    63    62    1
    60    64    62   ar
    61    65    58   ar
    62    66    65    1
    63    67    58    1
    64    68    67    1
    65    69    61    1
    66    70    69    1
    67    71    64    1
    68    72    71    1
    69    73     1    1
    70    74    73    1
    71    75     2    1
    72    76    75    1
    73    77    75    1
    74    78    77    1
    75    79    77    1
    76    80    77    1
    77    81    80    1
    78    82    80    1
    79    83    80    1
    80    84    83    1
    81    85    83    1
    82    86    73    1
    83    87    86    1
    84    88    86    1
    85    89     3    1
    86    90    89    1
    87    91     4    1
    88    92    91    1
    89    93    91    1
    90    94    93    1
    91    95    93    1
    92    96    93    1
    93    97    96    1
    94    98    96    1
    95    99    96    1
    96   100    99    1
    97   101    99    1
    98   102    89    1
    99   103   102    1
   100   104   102    1
   101   105     5    1
   102   106   105    1
   103   107     6    1
   104   108   107    1
   105   109   107    1
   106   110   109    1
   107   111   109    1
   108   112   109    1
   109   113   112    1
   110   114   112    1
   111   115   112    1
   112   116   115    1
   113   117   115    1
   114   118   105    1
   115   119   118    1
   116   120   118    1
   117   121     7    1
   118   122   121    1
   119   123     8    1
   120   124   123    1
   121   125   123    1
   122   126   125    1
   123   127   125    1
   124   128   125    1
   125   129   128    1
   126   130   128    1
   127   131   128    1
   128   132   131    1
   129   133   131    1
   130   134   121    1
   131   135   134    1
   132   136   134    1
   133   137     9    1
   134   138   137    1
   135   139    10    1
   136   140   139    1
   137   141   139    1
   138   142   141    1
   139   143   141    1
   140   144   141    1
   141   145   144    1
   142   146   144    1
   143   147   144    1
   144   148   147    1
   145   149   147    1
   146   150   137    1
   147   151   150    1
   148   152   150    1
   149   153    11    1
   150   154   153    1
   151   155    12    1
   152   156   155    1
   153   157   155    1
   154   158   157    1
   155   159   157    1
   156   160   157    1
   157   161   160    1
   158   162   160    1
   159   163   160    1
   160   164   163    1
   161   165   163    1
   162   166   153    1
   163   167   166    1
   164   168   166    1
   165    19    20   ar
   166    34    35   ar
   167    49    50   ar
   168    64    65   ar
   169    73    75    1
   170    83    86    1
   171    89    91    1
   172    99   102    1
   173   105   107    1
   174   115   118    1
   175   121   123    1
   176   131   134    1
   177   137   139    1
   178   147   150    1
   179   153   155    1
   180   163   166    1
