@<TRIPOS>MOLECULE
*****
 21 21 0 0 0
SMALL
GASTEIGER

@<TRIPOS>ATOM
      1 C73         8.6301   29.0769   10.5060 C.ar    2  RES22      -0.0499
      2 C74         9.4366   28.8896   11.5859 C.ar    2  RES22      -0.0559
      3 H74         9.6738   28.0042   11.8334 H       2  RES22       0.0623
      4 C75         9.9252   29.9525   12.3413 C.ar    2  RES22      -0.0499
      5 C76         9.5526   31.2129   11.9807 C.ar    2  RES22      -0.0559
      6 H76         9.8554   31.9430   12.5099 H       2  RES22       0.0623
      7 C77         8.7419   31.4884   10.8624 C.ar    2  RES22      -0.0499
      8 C78         8.2893   30.4118   10.1347 C.ar    2  RES22      -0.0559
      9 H78         7.7413   30.5586    9.3728 H       2  RES22       0.0623
     10 C79         8.0903   27.9736    9.6801 C.3     2  RES22      -0.0397
     11 H79A        7.1624   27.7934    9.9405 H       2  RES22       0.0278
     12 H79B        8.6323   27.1679    9.8189 H       2  RES22       0.0278
     13 H79C        8.1216   28.2291    8.7347 H       2  RES22       0.0278
     14 C80        10.8174   29.7031   13.5001 C.3     2  RES22      -0.0397
     15 H80A       11.7425   29.6099   13.1886 H       2  RES22       0.0278
     16 H80B       10.5421   28.8791   13.9547 H       2  RES22       0.0278
     17 H80C       10.7606   30.4568   14.1254 H       2  RES22       0.0278
     18 C81         8.3926   32.9135   10.4441 C.3     2  RES22      -0.0397
     19 H81A        8.9785   33.5453   10.9115 H       2  RES22       0.0278
     20 H81B        7.4604   33.1026   10.6768 H       2  RES22       0.0278
     21 H81C        8.5132   33.0077    9.4774 H       2  RES22       0.0278
@<TRIPOS>BOND
     1     1     2   ar
     2     2     3    1
     3     4     2   ar
     4     5     4   ar
     5     6     5    1
     6     7     5   ar
     7     8     1   ar
     8     9     8    1
     9    10     1    1
    10    11    10    1
    11    12    10    1
    12    13    10    1
    13    14     4    1
    14    15    14    1
    15    16    14    1
    16    17    14    1
    17    18     7    1
    18    19    18    1
    19    20    18    1
    20    21    18    1
    21     7     8   ar
