@<TRIPOS>MOLECULE
*****
 12 12 0 0 0
SMALL
GASTEIGER

@<TRIPOS>ATOM
      1 C1         -0.4233    1.3246   -0.0374 C.ar    1  RES11      -0.0618
      2 C2         -0.9932    0.4393    0.8747 C.ar    1  RES11      -0.0618
      3 C3          0.5759    0.8834   -0.8961 C.ar    1  RES11      -0.0618
      4 H1         -0.7261    2.3369   -0.1225 H       1  RES11       0.0618
      5 H2         -1.7923    0.7583    1.5349 H       1  RES11       0.0618
      6 H3          1.0200    1.5576   -1.5999 H       1  RES11       0.0618
      7 C3D        -0.5759   -0.8834    0.8961 C.ar    1  RES11      -0.0618
      8 C2D         0.9932   -0.4393   -0.8747 C.ar    1  RES11      -0.0618
      9 C1D         0.4233   -1.3246    0.0374 C.ar    1  RES11      -0.0618
     10 H3D        -1.0200   -1.5576    1.5999 H       1  RES11       0.0618
     11 H2D         1.7923   -0.7583   -1.5349 H       1  RES11       0.0618
     12 H1D         0.7261   -2.3369    0.1225 H       1  RES11       0.0618
@<TRIPOS>BOND
     1     1     2   ar
     2     2     5    1
     3     3     1   ar
     4     4     1    1
     5     6     3    1
     6     7     2   ar
     7     8     3   ar
     8     9     7   ar
     9    10     7    1
    10    11     8    1
    11    12     9    1
    12     8     9   ar
