@<TRIPOS>MOLECULE
*****
 12 12 0 0 0
SMALL
GASTEIGER

@<TRIPOS>ATOM
      1 I1          8.0351    1.8862   13.6547 I       1  RES11      -0.0438
      2 C25         9.3225    1.6757   11.9991 C.ar    1  RES11       0.0134
      3 C26        10.4769    0.9391   12.1276 C.ar    1  RES11      -0.0486
      4 C27        11.3362    0.8581   11.0317 C.ar    1  RES11      -0.0608
      5 C28        11.0829    1.5543    9.8817 C.ar    1  RES11      -0.0617
      6 C29         9.9393    2.2667    9.7841 C.ar    1  RES11      -0.0608
      7 C30         9.0606    2.3477   10.8197 C.ar    1  RES11      -0.0486
      8 H41        10.6933    0.4728   12.9731 H       1  RES11       0.0628
      9 H42        12.1130    0.2591   11.0689 H       1  RES11       0.0618
     10 H43        11.6941    1.4750    9.1339 H       1  RES11       0.0618
     11 H44         9.7777    2.7209    8.9811 H       1  RES11       0.0618
     12 H45         8.2391    2.7953   10.7207 H       1  RES11       0.0628
@<TRIPOS>BOND
     1     1     2    1
     2     2     3   ar
     3     3     4   ar
     4     4     5   ar
     5     5     6   ar
     6     6     7   ar
     7     7     2   ar
     8     8     3    1
     9     9     4    1
    10    10     5    1
    11    11     6    1
    12    12     7    1
