@<TRIPOS>MOLECULE
*****
 12 12 0 0 0
SMALL
USER_CHARGES

@<TRIPOS>ATOM
      1 C58        14.3174    5.5235    0.9090 C.ar    4  RES44      -0.0265
      2 H58        14.5312    6.2110    0.3192 H       4  RES44       0.0646
      3 C54        13.8737    4.6402    3.1629 C.ar    4  RES44      -0.0265
      4 H54        13.7821    4.7530    4.0816 H       4  RES44       0.0646
      5 C57        14.0589    4.2655    0.4885 C.ar    4  RES44      -0.0590
      6 H57        14.0957    4.0974   -0.4243 H       4  RES44       0.0618
      7 C55        13.6706    3.4588    2.5790 C.ar    4  RES44      -0.0590
      8 H55        13.4540    2.7351    3.1201 H       4  RES44       0.0618
      9 F7         14.5213    6.9049    2.7502 F       4  RES44      -0.2055
     10 C53        14.2385    5.7193    2.3123 C.ar    4  RES44       0.1234
     11 C56        13.7568    3.2609    1.2866 C.ar    4  RES44      -0.0616
     12 H56        13.6053    2.4137    0.9323 H       4  RES44       0.0618
@<TRIPOS>BOND
     1     1     2    1
     2     1     5   ar
     3     1    10   ar
     4     3     4    1
     5     3     7   ar
     6     3    10   ar
     7     5     6    1
     8     5    11   ar
     9     7     8    1
    10     7    11   ar
    11     9    10    1
    12    11    12    1
