@<TRIPOS>MOLECULE
*****
 12 12 0 0 0
SMALL
GASTEIGER

@<TRIPOS>ATOM
      1 F3          8.9417    8.9974    4.4600 F       4  RES44      -0.2053
      2 F4          7.2990   13.0241    2.7902 F       4  RES44      -0.2053
      3 C49         8.9417   10.3401    4.4600 C.ar    4  RES44       0.1288
      4 C50         8.0917   10.9933    3.6001 C.ar    4  RES44       0.0090
      5 H55         7.5186   10.5125    3.0149 H       4  RES44       0.0675
      6 C51         8.1275   12.3454    3.6340 C.ar    4  RES44       0.1288
      7 C52         8.9417   13.0753    4.4600 C.ar    4  RES44       0.0090
      8 H56         8.9417   14.0247    4.4600 H       4  RES44       0.0675
      9 C51C        9.7559   12.3454    5.2860 C.ar    4  RES44       0.1288
     10 F4C        10.5844   13.0241    6.1298 F       4  RES44      -0.2053
     11 C50C        9.7916   10.9933    5.3199 C.ar    4  RES44       0.0090
     12 H55C       10.3648   10.5125    5.9050 H       4  RES44       0.0675
@<TRIPOS>BOND
     1     1     3    1
     2     2     6    1
     3     3     4   ar
     4     4     5    1
     5     6     4   ar
     6     7     6   ar
     7     8     7    1
     8     9     7   ar
     9    10     9    1
    10    11     3   ar
    11    12    11    1
    12     9    11   ar
