@<TRIPOS>MOLECULE
*****
 24 26 0 0 0
SMALL
GASTEIGER

@<TRIPOS>ATOM
      1 C1          6.4289    3.2760    7.8051 C.ar    1  RES11      -0.0540
      2 H1          5.9400    2.8923    8.4968 H       1  RES11       0.0624
      3 C2          7.6478    3.7874    8.0531 C.ar    1  RES11      -0.0612
      4 H2          7.9987    3.7484    8.9126 H       1  RES11       0.0618
      5 C3          8.3765    4.3664    7.0452 C.ar    1  RES11      -0.0611
      6 H3          9.2093    4.7360    7.2321 H       1  RES11       0.0618
      7 C4          7.8897    4.4054    5.7595 C.ar    1  RES11      -0.0534
      8 H4          8.4027    4.7906    5.0869 H       1  RES11       0.0624
      9 C5          6.7685    4.4046    3.0116 C.ar    1  RES11      -0.0534
     10 H5          7.6173    4.7685    3.1234 H       1  RES11       0.0624
     11 C6          6.1974    4.3733    1.7591 C.ar    1  RES11      -0.0611
     12 H6          6.6726    4.7069    1.0324 H       1  RES11       0.0618
     13 C7          4.9244    3.8535    1.5582 C.ar    1  RES11      -0.0612
     14 H7          4.5488    3.8424    0.7075 H       1  RES11       0.0618
     15 C8          4.2370    3.3647    2.6151 C.ar    1  RES11      -0.0540
     16 H8          3.3825    3.0234    2.4823 H       1  RES11       0.0624
     17 C9          4.0585    2.8243    5.0223 C.ar    1  RES11      -0.0534
     18 H9          3.2035    2.4868    4.8843 H       1  RES11       0.0624
     19 C10         4.5869    2.7987    6.2504 C.ar    1  RES11      -0.0534
     20 H10         4.0963    2.4356    6.9526 H       1  RES11       0.0624
     21 C11         5.8834    3.3181    6.4984 C.ar    1  RES11      -0.0173
     22 C12         6.6438    3.8791    5.4538 C.ar    1  RES11      -0.0102
     23 C13         6.0816    3.8929    4.1139 C.ar    1  RES11      -0.0102
     24 C14         4.7847    3.3590    3.9165 C.ar    1  RES11      -0.0173
@<TRIPOS>BOND
     1     1     2    1
     2     3     1   ar
     3     4     3    1
     4     5     3   ar
     5     6     5    1
     6     7     5   ar
     7     8     7    1
     8     9    10    1
     9    11     9   ar
    10    12    11    1
    11    13    11   ar
    12    14    13    1
    13    15    13   ar
    14    16    15    1
    15    17    18    1
    16    19    17   ar
    17    20    19    1
    18    21     1   ar
    19    22     7   ar
    20    23     9   ar
    21    24    15   ar
    22    17    24   ar
    23    19    21   ar
    24    21    22   ar
    25    22    23   ar
    26    23    24   ar
