@<TRIPOS>MOLECULE
*****
 26 28 0 0 0
SMALL
GASTEIGER

@<TRIPOS>ATOM
      1 N1          5.8754    5.9813    5.1361 N.pl3   1  RES11      -0.3136
      2 C1          5.2749    6.2758    3.8962 C.ar    1  RES11       0.0386
      3 C2          6.0088    6.9960    2.9499 C.ar    1  RES11      -0.0400
      4 C3          5.5272    7.2064    1.6853 C.ar    1  RES11      -0.0600
      5 C4          4.3067    6.7279    1.2933 C.ar    1  RES11      -0.0611
      6 C5          3.5818    6.0308    2.2314 C.ar    1  RES11      -0.0528
      7 C6          4.0212    5.7791    3.5349 C.ar    1  RES11      -0.0039
      8 C7          3.1689    5.0259    4.4607 C.2     1  RES11      -0.0522
      9 C8          3.1840    5.0152    5.7930 C.2     1  RES11      -0.0522
     10 C9          4.0079    5.7767    6.7229 C.ar    1  RES11      -0.0039
     11 C10         3.5631    6.0052    8.0367 C.ar    1  RES11      -0.0528
     12 C11         4.3296    6.7229    8.9461 C.ar    1  RES11      -0.0611
     13 C12         5.5579    7.2196    8.5971 C.ar    1  RES11      -0.0600
     14 C13         6.0161    6.9902    7.3141 C.ar    1  RES11      -0.0400
     15 C14         5.2942    6.2741    6.3863 C.ar    1  RES11       0.0386
     16 H1          6.6456    5.5985    5.1299 H       1  RES11       0.1522
     17 H2          6.8412    7.3384    3.1839 H       1  RES11       0.0636
     18 H3          6.0420    7.6874    1.0777 H       1  RES11       0.0618
     19 H4          3.9826    6.8665    0.4331 H       1  RES11       0.0618
     20 H5          2.7464    5.7065    1.9830 H       1  RES11       0.0624
     21 H6          2.5291    4.4806    4.0625 H       1  RES11       0.0624
     22 H7          2.5762    4.4336    6.1892 H       1  RES11       0.0624
     23 H8          2.7379    5.6686    8.3036 H       1  RES11       0.0624
     24 H9          4.0043    6.8690    9.8042 H       1  RES11       0.0618
     25 H10         6.0698    7.6981    9.2089 H       1  RES11       0.0618
     26 H11         6.8448    7.3334    7.0678 H       1  RES11       0.0636
@<TRIPOS>BOND
     1     1     2    1
     2     2     3   ar
     3     3     4   ar
     4     4     5   ar
     5     5     6   ar
     6     6     7   ar
     7     7     2   ar
     8     8     7    1
     9     9     8    2
    10    10     9    1
    11    11    10   ar
    12    12    11   ar
    13    13    12   ar
    14    14    13   ar
    15    15     1    1
    16    16     1    1
    17    17     3    1
    18    18     4    1
    19    19     5    1
    20    20     6    1
    21    21     8    1
    22    22     9    1
    23    23    11    1
    24    24    12    1
    25    25    13    1
    26    26    14    1
    27    10    15   ar
    28    14    15   ar
