@<TRIPOS>MOLECULE
*****
 41 46 0 0 0
SMALL
GASTEIGER

@<TRIPOS>ATOM
      1 C26        -1.0682    3.5710    5.0167 C.3     2  RES22       0.0727
      2 C27        -0.8123    4.9336    5.6657 C.ar    2  RES22      -0.0205
      3 C28         0.3689    5.6586    5.7113 C.ar    2  RES22      -0.0565
      4 H17         1.1741    5.2962    5.3601 H       2  RES22       0.0621
      5 C29         0.3505    6.9224    6.2802 C.ar    2  RES22      -0.0614
      6 H18         1.1521    7.4307    6.3182 H       2  RES22       0.0618
      7 C30        -0.8295    7.4577    6.7984 C.ar    2  RES22      -0.0612
      8 H19        -0.8269    8.3340    7.1639 H       2  RES22       0.0618
      9 C31        -2.0051    6.7231    6.7846 C.ar    2  RES22      -0.0537
     10 H20        -2.8034    7.0794    7.1573 H       2  RES22       0.0624
     11 C32        -1.9916    5.4536    6.2144 C.ar    2  RES22      -0.0129
     12 C33        -3.0656    4.4730    6.0174 C.ar    2  RES22      -0.0129
     13 C34        -4.3990    4.4749    6.4366 C.ar    2  RES22      -0.0537
     14 H21        -4.7569    5.2103    6.9211 H       2  RES22       0.0624
     15 C35        -5.1866    3.3795    6.1292 C.ar    2  RES22      -0.0612
     16 H22        -6.0904    3.3590    6.4239 H       2  RES22       0.0618
     17 C36        -4.6853    2.3114    5.4008 C.ar    2  RES22      -0.0614
     18 H23        -5.2507    1.5769    5.1900 H       2  RES22       0.0618
     19 C37        -3.3556    2.3067    4.9738 C.ar    2  RES22      -0.0565
     20 H24        -3.0088    1.5792    4.4715 H       2  RES22       0.0621
     21 C38        -2.5574    3.3851    5.3003 C.ar    2  RES22      -0.0205
     22 C39        -0.6540    3.5825    3.5445 C.ar    2  RES22      -0.0205
     23 C40        -1.1380    4.3730    2.5170 C.ar    2  RES22      -0.0565
     24 H25        -1.8665    4.9650    2.6627 H       2  RES22       0.0621
     25 C41        -0.5367    4.2829    1.2669 C.ar    2  RES22      -0.0614
     26 H26        -0.8625    4.8144    0.5501 H       2  RES22       0.0618
     27 C42         0.5378    3.4209    1.0550 C.ar    2  RES22      -0.0612
     28 H27         0.9508    3.3869    0.1999 H       2  RES22       0.0618
     29 C43         1.0095    2.6135    2.0757 C.ar    2  RES22      -0.0537
     30 H28         1.7383    2.0230    1.9277 H       2  RES22       0.0624
     31 C44         0.3949    2.6827    3.3267 C.ar    2  RES22      -0.0129
     32 C45         0.6423    1.9357    4.5715 C.ar    2  RES22      -0.0129
     33 C46         1.4905    0.8722    4.8527 C.ar    2  RES22      -0.0537
     34 H29         2.0578    0.5186    4.1774 H       2  RES22       0.0624
     35 C47         1.4990    0.3337    6.1267 C.ar    2  RES22      -0.0612
     36 H30         2.0830   -0.3881    6.3281 H       2  RES22       0.0618
     37 C48         0.6591    0.8399    7.1163 C.ar    2  RES22      -0.0614
     38 H31         0.6764    0.4628    7.9882 H       2  RES22       0.0618
     39 C49        -0.2060    1.8935    6.8375 C.ar    2  RES22      -0.0565
     40 H32        -0.7853    2.2327    7.5091 H       2  RES22       0.0621
     41 C50        -0.2084    2.4385    5.5678 C.ar    2  RES22      -0.0205
@<TRIPOS>BOND
     1     1     2    1
     2     2     3   ar
     3     3     4    1
     4     5     3   ar
     5     6     5    1
     6     7     5   ar
     7     8     7    1
     8     9     7   ar
     9    10     9    1
    10    11     2   ar
    11    12    11    1
    12    13    12   ar
    13    14    13    1
    14    15    13   ar
    15    16    15    1
    16    17    15   ar
    17    18    17    1
    18    19    17   ar
    19    20    19    1
    20    21     1    1
    21    22     1    1
    22    23    22   ar
    23    24    23    1
    24    25    23   ar
    25    26    25    1
    26    27    25   ar
    27    28    27    1
    28    29    27   ar
    29    30    29    1
    30    31    22   ar
    31    32    31    1
    32    33    32   ar
    33    34    33    1
    34    35    33   ar
    35    36    35    1
    36    37    35   ar
    37    38    37    1
    38    39    37   ar
    39    40    39    1
    40    41     1    1
    41     9    11   ar
    42    12    21   ar
    43    19    21   ar
    44    29    31   ar
    45    32    41   ar
    46    39    41   ar
