@<TRIPOS>MOLECULE
*****
 12 12 0 0 0
SMALL
GASTEIGER

@<TRIPOS>ATOM
      1 Br1         1.6240    0.6560    5.3816 Br      1  RES11      -0.0472
      2 Cl2         4.5106    1.5598    4.5054 Cl      1  RES11      -0.0808
      3 Cl3         0.9716    0.9444    8.4707 Cl      1  RES11      -0.0808
      4 C1          2.8468    1.3728    6.6100 C.ar    1  RES11       0.0573
      5 C2          4.0981    1.7943    6.1568 C.ar    1  RES11       0.0757
      6 C3          2.5108    1.5110    7.9507 C.ar    1  RES11       0.0757
      7 Br1B        5.8965    3.2144    9.6214 Br      1  RES11      -0.0472
      8 Cl2B        3.0099    2.3106   10.4976 Cl      1  RES11      -0.0808
      9 Cl3B        6.5489    2.9260    6.5323 Cl      1  RES11      -0.0808
     10 C1B         4.6737    2.4976    8.3930 C.ar    1  RES11       0.0573
     11 C2B         3.4224    2.0761    8.8462 C.ar    1  RES11       0.0757
     12 C3B         5.0097    2.3594    7.0523 C.ar    1  RES11       0.0757
@<TRIPOS>BOND
     1     1     4    1
     2     2     5    1
     3     3     6    1
     4     4     5   ar
     5     5    12   ar
     6     6     4   ar
     7     7    10    1
     8     8    11    1
     9     9    12    1
    10    10    11   ar
    11    11     6   ar
    12    12    10   ar
