@<TRIPOS>MOLECULE
*****
 26 29 0 0 0
SMALL
GASTEIGER

@<TRIPOS>ATOM
      1 C1          8.4274    0.1343    7.1409 C.ar    1  RES11      -0.0606
      2 H1          8.8693    0.1792    7.9575 H       1  RES11       0.0618
      3 C2          9.0464    0.6255    6.0023 C.ar    1  RES11      -0.0540
      4 H2          9.8944    1.0035    6.0641 H       1  RES11       0.0624
      5 C3          8.4061    0.5603    4.7579 C.ar    1  RES11      -0.0167
      6 C4          9.0117    1.0438    3.5493 C.ar    1  RES11      -0.0534
      7 H3          9.8779    1.3823    3.5778 H       1  RES11       0.0624
      8 C5          8.3580    1.0208    2.3855 C.ar    1  RES11      -0.0534
      9 H4          8.7786    1.3550    1.6275 H       1  RES11       0.0624
     10 C6          7.0222    0.4874    2.2659 C.ar    1  RES11      -0.0167
     11 C7          7.1615   -0.4183    7.0783 C.ar    1  RES11      -0.0540
     12 H5          6.7662   -0.7475    7.8534 H       1  RES11       0.0624
     13 C8          7.1027   -0.0038    4.6855 C.ar    1  RES11      -0.0025
     14 C1B         5.0628   -0.1343    0.9923 C.ar    1  RES11      -0.0606
     15 H1B         4.6208   -0.1792    0.1757 H       1  RES11       0.0618
     16 C2B         4.4438   -0.6255    2.1309 C.ar    1  RES11      -0.0540
     17 H2B         3.5957   -1.0035    2.0691 H       1  RES11       0.0624
     18 C3B         5.0840   -0.5603    3.3753 C.ar    1  RES11      -0.0167
     19 C4B         4.4785   -1.0438    4.5839 C.ar    1  RES11      -0.0534
     20 H3B         3.6122   -1.3823    4.5554 H       1  RES11       0.0624
     21 C5B         5.1321   -1.0208    5.7477 C.ar    1  RES11      -0.0534
     22 H4B         4.7115   -1.3550    6.5057 H       1  RES11       0.0624
     23 C6B         6.4679   -0.4874    5.8673 C.ar    1  RES11      -0.0167
     24 C7B         6.3286    0.4183    1.0549 C.ar    1  RES11      -0.0540
     25 H5B         6.7239    0.7475    0.2798 H       1  RES11       0.0624
     26 C8B         6.3875    0.0038    3.4477 C.ar    1  RES11      -0.0025
@<TRIPOS>BOND
     1     1     2    1
     2     3     1   ar
     3     4     3    1
     4     5     3   ar
     5     6     5   ar
     6     7     6    1
     7     8     6   ar
     8     9     8    1
     9    10     8   ar
    10    11     1   ar
    11    12    11    1
    12    13     5   ar
    13    14    15    1
    14    16    14   ar
    15    17    16    1
    16    18    16   ar
    17    19    18   ar
    18    20    19    1
    19    21    19   ar
    20    22    21    1
    21    23    11   ar
    22    24    10   ar
    23    25    24    1
    24    26    10   ar
    25    13    23   ar
    26    13    26   ar
    27    14    24   ar
    28    18    26   ar
    29    21    23   ar
