@<TRIPOS>MOLECULE
*****
 12 12 0 0 0
SMALL
GASTEIGER

@<TRIPOS>ATOM
      1 N2         11.6750   -0.5366    9.5087 N.ar    1  RES22      -0.2751
      2 O1         10.0239    0.6106    8.4428 O.2     1  RES22      -0.2467
      3 O2         13.2325   -1.7215   10.6161 O.2     1  RES22      -0.2677
      4 N6         11.7756   -0.1931    7.2357 N.ar    1  RES22      -0.3143
      5 C1         12.9552   -0.8702    7.1923 C.ar    1  RES22       0.0115
      6 C5         12.8378   -1.2679    9.5402 C.ar    1  RES22       0.2539
      7 C6         13.5012   -1.4045    8.2760 C.ar    1  RES22       0.0189
      8 C7         11.0887    0.0015    8.3969 C.ar    1  RES22       0.3267
      9 H2         13.3659   -0.8981    6.3287 H       1  RES22       0.0810
     10 H4         11.2779   -0.3849   10.2619 H       1  RES22       0.1734
     11 H5         14.2951   -1.8566    8.2536 H       1  RES22       0.0686
     12 H9         11.4359    0.1434    6.5451 H       1  RES22       0.1698
@<TRIPOS>BOND
     1     1     6   ar
     2     2     8    2
     3     3     6    2
     4     4     5   ar
     5     5     7   ar
     6     6     7   ar
     7     7    11    1
     8     8     1   ar
     9     9     5    1
    10    10     1    1
    11    12     4    1
    12     4     8   ar
