@<TRIPOS>MOLECULE
*****
 12 12 0 0 0
SMALL
GASTEIGER

@<TRIPOS>ATOM
      1 Br1         3.3339   -0.2649    4.0139 Br      1  RES11      -0.0503
      2 C35         2.7990    0.1873    5.7769 C.ar    1  RES11       0.0179
      3 C36         3.7460    0.2007    6.7830 C.ar    1  RES11      -0.0478
      4 H36         4.6450   -0.0505    6.6090 H       1  RES11       0.0629
      5 C37         3.3537    0.5812    8.0296 C.ar    1  RES11      -0.0607
      6 H37         3.9934    0.6139    8.7305 H       1  RES11       0.0618
      7 C38         2.0361    0.9201    8.2925 C.ar    1  RES11      -0.0617
      8 H38         1.7741    1.1757    9.1686 H       1  RES11       0.0618
      9 C39         1.1212    0.8859    7.2842 C.ar    1  RES11      -0.0607
     10 H39         0.2152    1.1103    7.4652 H       1  RES11       0.0618
     11 C40         1.4889    0.5306    6.0098 C.ar    1  RES11      -0.0478
     12 H40         0.8523    0.5232    5.3039 H       1  RES11       0.0629
@<TRIPOS>BOND
     1     1     2    1
     2     2     3   ar
     3     3     4    1
     4     5     3   ar
     5     6     5    1
     6     7     5   ar
     7     8     7    1
     8     9     7   ar
     9    10     9    1
    10    11     2   ar
    11    12    11    1
    12     9    11   ar
