@<TRIPOS>MOLECULE
*****
 22 24 0 0 0
SMALL
GASTEIGER

@<TRIPOS>ATOM
      1 N1          0.8595    0.8595    0.8595 N.3     1  RES11      -0.2637
      2 C1          1.6741    0.0000    0.0000 C.3     1  RES11       0.0565
      3 H1          2.2398   -0.6311    0.6311 H       1  RES11       0.0597
      4 N1A         0.8595   -0.8595   -0.8595 N.3     1  RES11      -0.2637
      5 N1D        -0.8595   -0.8595    0.8595 N.3     1  RES11      -0.2637
      6 N1G        -0.8595    0.8595   -0.8595 N.3     1  RES11      -0.2637
      7 C1A        -0.0000   -1.6741    0.0000 C.3     1  RES11       0.0565
      8 C1P         0.0000    0.0000    1.6741 C.3     1  RES11       0.0565
      9 C1C         0.0000    1.6741    0.0000 C.3     1  RES11       0.0565
     10 C1Q        -0.0000   -0.0000   -1.6741 C.3     1  RES11       0.0565
     11 C1D        -1.6741    0.0000    0.0000 C.3     1  RES11       0.0565
     12 H1Q         0.6311    0.6311   -2.2398 H       1  RES11       0.0597
     13 H1S        -0.6311   -0.6311   -2.2398 H       1  RES11       0.0597
     14 H1H        -2.2398   -0.6311   -0.6311 H       1  RES11       0.0597
     15 H1D        -2.2398    0.6311    0.6311 H       1  RES11       0.0597
     16 H1C         0.6311    2.2398   -0.6311 H       1  RES11       0.0597
     17 H1J        -0.6311    2.2398    0.6311 H       1  RES11       0.0597
     18 H1T         0.6311   -0.6311    2.2398 H       1  RES11       0.0597
     19 H1P        -0.6311    0.6311    2.2398 H       1  RES11       0.0597
     20 H1E         0.6311   -2.2398    0.6311 H       1  RES11       0.0597
     21 H1A        -0.6311   -2.2398   -0.6311 H       1  RES11       0.0597
     22 H1B         2.2398    0.6311   -0.6311 H       1  RES11       0.0597
@<TRIPOS>BOND
     1     1     2    1
     2     2     3    1
     3     4     2    1
     4     5     7    1
     5     6     9    1
     6     7     4    1
     7     8     1    1
     8     9     1    1
     9    10     4    1
    10    11     5    1
    11    12    10    1
    12    13    10    1
    13    14    11    1
    14    15    11    1
    15    16     9    1
    16    17     9    1
    17    18     8    1
    18    19     8    1
    19    20     7    1
    20    21     7    1
    21    22     2    1
    22     5     8    1
    23     6    10    1
    24     6    11    1
