@<TRIPOS>MOLECULE
*****
 12 12 0 0 0
SMALL
USER_CHARGES

@<TRIPOS>ATOM
      1 C45         3.0134    7.0989    5.6770 C.ar    2  RES22       0.0410
      2 C46         3.7344    6.5544    4.6233 C.ar    2  RES22      -0.0434
      3 H33         4.6793    6.6511    4.5914 H       2  RES22       0.0632
      4 C47         3.0779    5.8674    3.6112 C.ar    2  RES22      -0.0604
      5 H34         3.5665    5.4959    2.8896 H       2  RES22       0.0618
      6 C48         1.6896    5.7249    3.6527 C.ar    2  RES22      -0.0617
      7 H35         1.2398    5.2567    2.9630 H       2  RES22       0.0618
      8 C49         0.9686    6.2694    4.7095 C.ar    2  RES22      -0.0604
      9 H36         0.0258    6.1727    4.7383 H       2  RES22       0.0618
     10 C50         1.6304    6.9564    5.7217 C.ar    2  RES22      -0.0434
     11 H37         1.1375    7.3279    6.4433 H       2  RES22       0.0632
     12 Cl1         3.8367    7.8724    6.9190 Cl      2  RES22      -0.0835
@<TRIPOS>BOND
     1     1     2   ar
     2     2     3    1
     3     4     2   ar
     4     5     4    1
     5     6     4   ar
     6     7     6    1
     7     8     6   ar
     8     9     8    1
     9    10     1   ar
    10    11    10    1
    11    12     1    1
    12     8    10   ar
