@<TRIPOS>MOLECULE
*****
 26 28 0 0 0
SMALL
GASTEIGER

@<TRIPOS>ATOM
      1 Br1        12.3205    5.7068    3.9093 Br      1  RES11      -0.0843
      2 Br2        13.0045    0.1346    4.7585 Br      1  RES11      -0.0843
      3 Br3         7.8064    2.3647    4.3227 Br      1  RES11      -0.0843
      4 Br4        11.1543    2.0344   -0.2571 Br      1  RES11      -0.0843
      5 C1         11.6228    3.9181    3.4795 C.3     1  RES11       0.0300
      6 C2         12.4950    2.8787    4.1836 C.3     1  RES11      -0.0222
      7 H1         13.4119    2.9458    3.8760 H       1  RES11       0.0292
      8 H2         12.4807    3.0228    5.1424 H       1  RES11       0.0292
      9 C3         11.9252    1.5078    3.8484 C.3     1  RES11       0.0300
     10 C4         10.4880    1.3882    4.3770 C.3     1  RES11      -0.0222
     11 H3         10.1313    0.5056    4.1896 H       1  RES11       0.0292
     12 H4         10.4678    1.5322    5.3358 H       1  RES11       0.0292
     13 C5          9.6653    2.4529    3.6646 C.3     1  RES11       0.0300
     14 C6         10.1966    3.8456    3.9902 C.3     1  RES11      -0.0222
     15 H5          9.6515    4.5224    3.5600 H       1  RES11       0.0292
     16 H6         10.1765    3.9969    4.9478 H       1  RES11       0.0292
     17 C7          9.6654    2.2254    2.1495 C.3     1  RES11      -0.0222
     18 H7          9.3039    1.3501    1.9392 H       1  RES11       0.0292
     19 H8          9.1232    2.8978    1.7085 H       1  RES11       0.0292
     20 C8         11.1152    2.3260    1.6857 C.3     1  RES11       0.0300
     21 C9         11.6652    3.7205    1.9729 C.3     1  RES11      -0.0222
     22 H9         12.5773    3.7948    1.6497 H       1  RES11       0.0292
     23 H10        11.1255    4.3929    1.5307 H       1  RES11       0.0292
     24 C10        11.9677    1.2541    2.3489 C.3     1  RES11      -0.0222
     25 H11        12.8800    1.3030    2.0245 H       1  RES11       0.0292
     26 H12        11.6155    0.3724    2.1471 H       1  RES11       0.0292
@<TRIPOS>BOND
     1     1     5    1
     2     2     9    1
     3     3    13    1
     4     4    20    1
     5     5     6    1
     6     6     7    1
     7     8     6    1
     8     9     6    1
     9    10     9    1
    10    11    10    1
    11    12    10    1
    12    13    10    1
    13    14     5    1
    14    15    14    1
    15    16    14    1
    16    17    13    1
    17    18    17    1
    18    19    17    1
    19    20    17    1
    20    21     5    1
    21    22    21    1
    22    23    21    1
    23    24     9    1
    24    25    24    1
    25    26    24    1
    26    13    14    1
    27    20    21    1
    28    20    24    1
