@<TRIPOS>MOLECULE
*****
 138 153 0 0 0
SMALL
GASTEIGER

@<TRIPOS>ATOM
      1 C1         12.5788   20.6310    1.4256 C.ar    1  RES11      -0.0167
      2 C2         11.4187   20.5288    2.1436 C.ar    1  RES11      -0.0463
      3 H1         11.1180   21.2841    2.6355 H       1  RES11       0.0630
      4 C3         10.6327   19.3188    2.1804 C.ar    1  RES11      -0.0167
      5 C4         11.0977   18.2370    1.3782 C.ar    1  RES11      -0.0463
      6 H2         10.5403   17.4757    1.2704 H       1  RES11       0.0630
      7 C5         12.3800   18.2530    0.7180 C.ar    1  RES11      -0.0167
      8 C6         13.0986   19.4991    0.7180 C.ar    1  RES11      -0.0463
      9 H3         13.9206   19.5712    0.2472 H       1  RES11       0.0630
     10 C7         13.6028   21.8371    1.6518 C.ar    1  RES11      -0.0178
     11 C8         14.6659   22.0434    0.7601 C.ar    1  RES11      -0.0535
     12 H4         14.6690   21.6327   -0.0973 H       1  RES11       0.0624
     13 C9         15.7196   22.8688    1.1599 C.ar    1  RES11      -0.0535
     14 H5         16.4555   22.9850    0.5708 H       1  RES11       0.0624
     15 C10        15.7353   23.5199    2.3698 C.ar    1  RES11      -0.0178
     16 C11        14.5579   23.4318    3.1352 C.ar    1  RES11      -0.0535
     17 H6         14.4765   23.9827    3.9058 H       1  RES11       0.0624
     18 C12        13.4995   22.5703    2.8169 C.ar    1  RES11      -0.0535
     19 H7         12.7401   22.4942    3.3798 H       1  RES11       0.0624
     20 C13        16.9957   24.1330    3.0037 C.ar    1  RES11      -0.0178
     21 C14        18.2279   23.4398    2.9037 C.ar    1  RES11      -0.0535
     22 H8         18.3265   22.7646    2.2409 H       1  RES11       0.0624
     23 C15        19.2847   23.7223    3.7401 C.ar    1  RES11      -0.0535
     24 H9         20.1052   23.2555    3.6270 H       1  RES11       0.0624
     25 C16        19.1689   24.7099    4.7817 C.ar    1  RES11      -0.0178
     26 C17        17.9742   25.5293    4.7265 C.ar    1  RES11      -0.0535
     27 H10        17.9241   26.2906    5.2920 H       1  RES11       0.0624
     28 C18        16.8892   25.2549    3.8769 C.ar    1  RES11      -0.0535
     29 H11        16.1095   25.7998    3.8874 H       1  RES11       0.0624
     30 C19        20.0519   24.6458    5.9863 C.ar    1  RES11      -0.0178
     31 C20        21.3327   23.9967    6.0442 C.ar    1  RES11      -0.0535
     32 H12        21.8196   23.8425    5.2420 H       1  RES11       0.0624
     33 C21        21.8587   23.5980    7.2462 C.ar    1  RES11      -0.0535
     34 H13        22.7073   23.1713    7.2357 H       1  RES11       0.0624
     35 C22        21.2700   23.7603    8.4272 C.ar    1  RES11      -0.0178
     36 C23        20.0817   24.5737    8.4666 C.ar    1  RES11      -0.0535
     37 H14        19.6887   24.8101    9.2978 H       1  RES11       0.0624
     38 C24        19.5149   25.0104    7.2594 C.ar    1  RES11      -0.0535
     39 H15        18.7477   25.5674    7.2909 H       1  RES11       0.0624
     40 C25        21.5800   22.8989    9.6371 C.ar    1  RES11      -0.0178
     41 C26        22.6479   22.0214    9.6818 C.ar    1  RES11      -0.0535
     42 H16        23.3931   22.1857    9.1163 H       1  RES11       0.0624
     43 C27        22.6901   20.8895   10.5287 C.ar    1  RES11      -0.0535
     44 H17        23.4651   20.3405   10.5497 H       1  RES11       0.0624
     45 C28        21.6223   20.5789   11.3178 C.ar    1  RES11      -0.0178
     46 C29        20.6406   21.5526   11.5098 C.ar    1  RES11      -0.0535
     47 H18        19.9862   21.4404   12.1883 H       1  RES11       0.0624
     48 C30        20.6203   22.7386   10.6681 C.ar    1  RES11      -0.0535
     49 H19        19.9627   23.4077   10.8101 H       1  RES11       0.0624
     50 C31         9.6792   19.0523    3.2720 C.ar    1  RES11      -0.0178
     51 C32         9.6071   17.8343    3.9637 C.ar    1  RES11      -0.0535
     52 H20         9.8216   17.0489    3.4745 H       1  RES11       0.0624
     53 C33         9.2674   17.6740    5.2446 C.ar    1  RES11      -0.0535
     54 H21         9.2502   16.8045    5.6286 H       1  RES11       0.0624
     55 C34         8.9386   18.7899    6.0179 C.ar    1  RES11      -0.0178
     56 C35         8.7084   20.0280    5.3393 C.ar    1  RES11      -0.0535
     57 H22         8.2982   20.7512    5.7996 H       1  RES11       0.0624
     58 C36         9.0779   20.1722    4.0321 C.ar    1  RES11      -0.0535
     59 H23         8.9480   21.0097    3.6007 H       1  RES11       0.0624
     60 C37         9.1985   18.7218    7.5618 C.ar    1  RES11      -0.0178
     61 C38         9.1985   17.4897    8.2509 C.ar    1  RES11      -0.0535
     62 H24         8.7648   16.7324    7.8748 H       1  RES11       0.0624
     63 C39         9.8326   17.3955    9.4766 C.ar    1  RES11      -0.0535
     64 H25         9.8310   16.5561    9.9237 H       1  RES11       0.0624
     65 C40        10.4886   18.4994   10.1026 C.ar    1  RES11      -0.0178
     66 C41        10.3493   19.7295    9.4792 C.ar    1  RES11      -0.0535
     67 H26        10.7203   20.5028    9.8896 H       1  RES11       0.0624
     68 C42         9.6666   19.8637    8.2352 C.ar    1  RES11      -0.0535
     69 H27         9.5257   20.7252    7.8617 H       1  RES11       0.0624
     70 C43        11.5455   18.2870   11.1862 C.ar    1  RES11      -0.0178
     71 C44        11.8148   17.0209   11.7333 C.ar    1  RES11      -0.0535
     72 H28        11.2182   16.2977   11.5834 H       1  RES11       0.0624
     73 C45        12.9953   16.8286   12.5276 C.ar    1  RES11      -0.0535
     74 H29        13.1581   15.9651   12.8853 H       1  RES11       0.0624
     75 C46        13.9300   17.8543   12.8012 C.ar    1  RES11      -0.0178
     76 C47        13.5778   19.1124   12.3277 C.ar    1  RES11      -0.0535
     77 H30        14.1383   19.8497   12.5434 H       1  RES11       0.0624
     78 C48        12.4301   19.3508   11.5439 C.ar    1  RES11      -0.0535
     79 H31        12.2406   20.2343   11.2494 H       1  RES11       0.0624
     80 C49        15.3078   17.5899   13.2825 C.ar    1  RES11      -0.0178
     81 C50        16.0062   16.3938   12.9564 C.ar    1  RES11      -0.0535
     82 H32        15.5036   15.6185   12.7381 H       1  RES11       0.0624
     83 C51        17.3981   16.3137   12.9458 C.ar    1  RES11      -0.0535
     84 H33        17.8239   15.4883   12.7433 H       1  RES11       0.0624
     85 C52        18.1621   17.4316   13.2325 C.ar    1  RES11      -0.0178
     86 C53        17.5155   18.5375   13.8138 C.ar    1  RES11      -0.0535
     87 H34        18.0369   19.2387   14.1899 H       1  RES11       0.0624
     88 C54        16.1142   18.6256   13.8533 C.ar    1  RES11      -0.0535
     89 H35        15.6993   19.3769   14.2583 H       1  RES11       0.0624
     90 C55        13.1315   17.0269    0.3682 C.ar    1  RES11      -0.0178
     91 C56        14.2213   17.0630   -0.5260 C.ar    1  RES11      -0.0535
     92 H36        14.3152   17.8082   -1.1073 H       1  RES11       0.0624
     93 C57        15.1795   16.0272   -0.5786 C.ar    1  RES11      -0.0535
     94 H37        15.8637   16.0352   -1.2388 H       1  RES11       0.0624
     95 C58        15.0980   14.9794    0.3630 C.ar    1  RES11      -0.0178
     96 C59        13.9347   14.8111    1.1362 C.ar    1  RES11      -0.0535
     97 H38        13.7891   14.0378    1.6649 H       1  RES11       0.0624
     98 C60        12.9671   15.9030    1.0731 C.ar    1  RES11      -0.0535
     99 H39        12.1624   15.8088    1.5702 H       1  RES11       0.0624
    100 C61        16.3240   14.2221    0.8364 C.ar    1  RES11      -0.0178
    101 C62        17.5499   14.8933    0.8154 C.ar    1  RES11      -0.0535
    102 H40        17.6783   15.6225    0.2209 H       1  RES11       0.0624
    103 C63        18.5990   14.4906    1.6702 C.ar    1  RES11      -0.0535
    104 H41        19.4006   14.9995    1.6991 H       1  RES11       0.0624
    105 C64        18.4674   13.2926    2.5197 C.ar    1  RES11      -0.0178
    106 C65        17.2979   12.5593    2.3488 C.ar    1  RES11      -0.0535
    107 H42        17.1992   11.7479    2.8327 H       1  RES11       0.0624
    108 C66        16.2739   12.9520    1.5176 C.ar    1  RES11      -0.0535
    109 H43        15.5270   12.3790    1.3887 H       1  RES11       0.0624
    110 C67        19.4022   13.1784    3.6954 C.ar    1  RES11      -0.0178
    111 C68        20.6766   13.7814    3.7138 C.ar    1  RES11      -0.0535
    112 H44        21.0868   14.0298    2.8932 H       1  RES11       0.0624
    113 C69        21.3593   14.0238    4.9316 C.ar    1  RES11      -0.0535
    114 H45        22.2048   14.4585    4.9132 H       1  RES11       0.0624
    115 C70        20.8175   13.6432    6.1494 C.ar    1  RES11      -0.0178
    116 C71        19.6026   12.9019    6.1284 C.ar    1  RES11      -0.0535
    117 H46        19.2456   12.5633    6.9411 H       1  RES11       0.0624
    118 C72        18.9293   12.6675    4.9264 C.ar    1  RES11      -0.0535
    119 H47        18.1308   12.1526    4.9369 H       1  RES11       0.0624
    120 C73        21.2716   14.3143    7.4093 C.ar    1  RES11      -0.0178
    121 C74        21.6458   15.7107    7.3383 C.ar    1  RES11      -0.0535
    122 H48        21.8619   16.1033    6.5019 H       1  RES11       0.0624
    123 C75        21.6912   16.4960    8.5350 C.ar    1  RES11      -0.0535
    124 H49        21.8525   17.4296    8.4745 H       1  RES11       0.0624
    125 C76        21.4971   15.8950    9.8185 C.ar    1  RES11      -0.0178
    126 C77        21.2873   14.5647    9.8922 C.ar    1  RES11      -0.0535
    127 H50        21.1996   14.1520   10.7444 H       1  RES11       0.0624
    128 C78        21.1886   13.7153    8.6349 C.ar    1  RES11      -0.0535
    129 H51        21.0696   12.7757    8.7007 H       1  RES11       0.0624
    130 C79        21.2747   19.1525   11.7833 C.ar    1  RES11      -0.0167
    131 C80        20.2288   18.9101   12.6776 C.ar    1  RES11      -0.0463
    132 H52        19.9408   19.5852   13.2825 H       1  RES11       0.0630
    133 C81        19.5775   17.5758   12.6670 C.ar    1  RES11      -0.0167
    134 C82        20.1537   16.5481   11.8254 C.ar    1  RES11      -0.0463
    135 H53        19.7826   15.6726   11.8464 H       1  RES11       0.0630
    136 C83        21.2528   16.8105   10.9732 C.ar    1  RES11      -0.0167
    137 C84        21.8634   18.1208   10.9863 C.ar    1  RES11      -0.0463
    138 H54        22.6447   18.2930   10.4735 H       1  RES11       0.0630
@<TRIPOS>BOND
     1     1     2   ar
     2     1     8   ar
     3     1    10    1
     4     2     3    1
     5     2     4   ar
     6     4     5   ar
     7     4    50    1
     8     5     6    1
     9     5     7   ar
    10     7     8   ar
    11     7    90    1
    12     8     9    1
    13    10    11   ar
    14    10    18   ar
    15    11    12    1
    16    11    13   ar
    17    13    14    1
    18    13    15   ar
    19    15    16   ar
    20    15    20    1
    21    16    17    1
    22    16    18   ar
    23    18    19    1
    24    20    21   ar
    25    20    28   ar
    26    21    22    1
    27    21    23   ar
    28    23    24    1
    29    23    25   ar
    30    25    26   ar
    31    25    30    1
    32    26    27    1
    33    26    28   ar
    34    28    29    1
    35    30    31   ar
    36    30    38   ar
    37    31    32    1
    38    31    33   ar
    39    33    34    1
    40    33    35   ar
    41    35    36   ar
    42    35    40    1
    43    36    37    1
    44    36    38   ar
    45    38    39    1
    46    40    41   ar
    47    40    48   ar
    48    41    42    1
    49    41    43   ar
    50    43    44    1
    51    43    45   ar
    52    45    46   ar
    53    45   130    1
    54    46    47    1
    55    46    48   ar
    56    48    49    1
    57    50    51   ar
    58    50    58   ar
    59    51    52    1
    60    51    53   ar
    61    53    54    1
    62    53    55   ar
    63    55    56   ar
    64    55    60    1
    65    56    57    1
    66    56    58   ar
    67    58    59    1
    68    60    61   ar
    69    60    68   ar
    70    61    62    1
    71    61    63   ar
    72    63    64    1
    73    63    65   ar
    74    65    66   ar
    75    65    70    1
    76    66    67    1
    77    66    68   ar
    78    68    69    1
    79    70    71   ar
    80    70    78   ar
    81    71    72    1
    82    71    73   ar
    83    73    74    1
    84    73    75   ar
    85    75    76   ar
    86    75    80    1
    87    76    77    1
    88    76    78   ar
    89    78    79    1
    90    80    81   ar
    91    80    88   ar
    92    81    82    1
    93    81    83   ar
    94    83    84    1
    95    83    85   ar
    96    85    86   ar
    97    85   133    1
    98    86    87    1
    99    86    88   ar
   100    88    89    1
   101    90    91   ar
   102    90    98   ar
   103    91    92    1
   104    91    93   ar
   105    93    94    1
   106    93    95   ar
   107    95    96   ar
   108    95   100    1
   109    96    97    1
   110    96    98   ar
   111    98    99    1
   112   100   101   ar
   113   100   108   ar
   114   101   102    1
   115   101   103   ar
   116   103   104    1
   117   103   105   ar
   118   105   106   ar
   119   105   110    1
   120   106   107    1
   121   106   108   ar
   122   108   109    1
   123   110   111   ar
   124   110   118   ar
   125   111   112    1
   126   111   113   ar
   127   113   114    1
   128   113   115   ar
   129   115   116   ar
   130   115   120    1
   131   116   117    1
   132   116   118   ar
   133   118   119    1
   134   120   121   ar
   135   120   128   ar
   136   121   122    1
   137   121   123   ar
   138   123   124    1
   139   123   125   ar
   140   125   126   ar
   141   125   136    1
   142   126   127    1
   143   126   128   ar
   144   128   129    1
   145   130   131   ar
   146   130   137   ar
   147   131   132    1
   148   131   133   ar
   149   133   134   ar
   150   134   135    1
   151   134   136   ar
   152   136   137   ar
   153   137   138    1
