####################################################################### 
# 
# This file contains crystal structure data downloaded from the 
# Cambridge Structural Database (CSD) hosted by the Cambridge 
# Crystallographic Data Centre (CCDC).
# 
# Full information about CCDC data access policies and citation 
# guidelines are available at http://www.ccdc.cam.ac.uk/access/V1 
# 
# Audit and citation data items may have been added by the CCDC. 
# Please retain this information to preserve the provenance of 
# this file and to allow appropriate attribution of the data. 
# 
#######################################################################
@<TRIPOS>MOLECULE
1018380
   180   192     1     0     0
SMALL
NO_CHARGES
****
Generated from the CSD

@<TRIPOS>ATOM
     1 C1      17.2817  11.1512  19.5734   C.ar      1 RES1   0.0000
     2 C2      17.9725  10.4538  18.5896   C.ar      1 RES1   0.0000
     3 C3      18.7427  11.1643  17.6391   C.ar      1 RES1   0.0000
     4 C4      18.8377  12.5377  17.7075   C.ar      1 RES1   0.0000
     5 C5      18.1000  13.2580  18.6784   C.ar      1 RES1   0.0000
     6 C6      17.3528  12.5574  19.6318   C.ar      1 RES1   0.0000
     7 C7      16.4507  10.4096  20.6108   C.3       1 RES1   0.0000
     8 H7A     16.2017   9.5486  20.2659   H         1 RES1   0.0000
     9 H7B     15.6597  10.9154  20.8079   H         1 RES1   0.0000
    10 H7C     16.9652  10.2983  21.4130   H         1 RES1   0.0000
    11 C8      19.4787  10.4014  16.5609   C.3       1 RES1   0.0000
    12 H8A     19.6591  10.9858  15.8209   H         1 RES1   0.0000
    13 H8B     18.9381   9.6664  16.2633   H         1 RES1   0.0000
    14 H8C     20.3076  10.0675  16.9144   H         1 RES1   0.0000
    15 C9      18.1616  14.7640  18.6553   C.3       1 RES1   0.0000
    16 H9A     17.3757  15.1225  19.0766   H         1 RES1   0.0000
    17 H9B     18.2044  15.0685  17.7475   H         1 RES1   0.0000
    18 H9C     18.9408  15.0587  19.1302   H         1 RES1   0.0000
    19 C10     16.6355  13.2744  20.7657   C.3       1 RES1   0.0000
    20 H10A    16.8485  12.7391  21.7233   H         1 RES1   0.0000
    21 H10B    17.0474  14.3089  20.8557   H         1 RES1   0.0000
    22 C11     14.8004  14.4219  19.6664   C.3       1 RES1   0.0000
    23 H11A    15.2393  14.2353  18.6648   H         1 RES1   0.0000
    24 H11B    15.1849  15.3943  20.0380   H         1 RES1   0.0000
    25 C12     13.3050  14.4726  19.5630   C.ar      1 RES1   0.0000
    26 C13     12.6284  13.6558  18.6591   C.ar      1 RES1   0.0000
    27 H13     13.1184  13.1221  18.0750   H         1 RES1   0.0000
    28 C14     11.2457  13.6148  18.6036   C.ar      1 RES1   0.0000
    29 H14     10.8164  13.0501  18.0003   H         1 RES1   0.0000
    30 C15     10.4946  14.4333  19.4621   C.ar      1 RES1   0.0000
    31 C16     11.1598  15.2813  20.3291   C.ar      1 RES1   0.0000
    32 H16     10.6737  15.8542  20.8768   H         1 RES1   0.0000
    33 C17     12.5409  15.2846  20.3865   C.ar      1 RES1   0.0000
    34 H17     12.9672  15.8461  20.9936   H         1 RES1   0.0000
    35 C18      8.2559  14.4988  20.5491   C.ar      1 RES1   0.0000
    36 C19      8.7398  14.2205  21.8355   C.ar      1 RES1   0.0000
    37 H19      9.5953  13.8719  21.9474   H         1 RES1   0.0000
    38 C20      7.9414  14.4644  22.9314   C.ar      1 RES1   0.0000
    39 H20      8.2763  14.2893  23.7801   H         1 RES1   0.0000
    40 C21      6.6680  14.9605  22.8092   C.ar      1 RES1   0.0000
    41 H21      6.1536  15.1405  23.5561   H         1 RES1   0.0000
    42 C22      6.1651  15.1864  21.5337   C.ar      1 RES1   0.0000
    43 H22      5.2944  15.4990  21.4341   H         1 RES1   0.0000
    44 C23      6.9284  14.9539  20.4266   C.ar      1 RES1   0.0000
    45 H23      6.5679  15.0996  19.5822   H         1 RES1   0.0000
    46 C24     18.0008   8.9511  18.5564   C.3       1 RES1   0.0000
    47 H24A    18.9567   8.6368  18.2742   H         1 RES1   0.0000
    48 H24B    17.8188   8.5876  19.5190   H         1 RES1   0.0000
    49 C25     17.3048   6.9523  17.3721   C.3       1 RES1   0.0000
    50 H25A    17.4147   6.4383  18.3086   H         1 RES1   0.0000
    51 H25B    18.2369   6.8770  16.8455   H         1 RES1   0.0000
    52 C26     16.2263   6.2762  16.5659   C.ar      1 RES1   0.0000
    53 C27     15.9180   6.6396  15.2655   C.ar      1 RES1   0.0000
    54 H27     16.3697   7.3484  14.8671   H         1 RES1   0.0000
    55 C28     14.9514   5.9636  14.5550   C.ar      1 RES1   0.0000
    56 H28     14.7619   6.2255  13.6836   H         1 RES1   0.0000
    57 C29     14.2579   4.9110  15.1027   C.ar      1 RES1   0.0000
    58 C30     14.5679   4.5492  16.4012   C.ar      1 RES1   0.0000
    59 H30     14.1186   3.8387  16.8014   H         1 RES1   0.0000
    60 C31     15.5353   5.2269  17.1136   C.ar      1 RES1   0.0000
    61 H31     15.7237   4.9666  17.9850   H         1 RES1   0.0000
    62 C32     13.2766   2.7812  14.3635   C.ar      1 RES1   0.0000
    63 C33     12.0802   2.0790  14.3635   C.ar      1 RES1   0.0000
    64 H33     11.2696   2.5357  14.3635   H         1 RES1   0.0000
    65 C34     12.0983   0.6728  14.3596   C.ar      1 RES1   0.0000
    66 H34     11.2939   0.2063  14.3558   H         1 RES1   0.0000
    67 C35     13.2766  -0.0262  14.3635   C.ar      1 RES1   0.0000
    68 H35     13.2766  -0.9576  14.3635   H         1 RES1   0.0000
    69 C36     19.7438  13.2678  16.7516   C.3       1 RES1   0.0000
    70 H36A    20.0115  14.1174  17.1500   H         1 RES1   0.0000
    71 H36B    20.5508  12.7358  16.6080   H         1 RES1   0.0000
    72 C37     20.0416  13.9488  14.4343   C.3       1 RES1   0.0000
    73 H37A    20.8147  13.2760  14.3817   H         1 RES1   0.0000
    74 H37B    20.4343  14.8622  14.6890   H         1 RES1   0.0000
    75 C38     19.3712  14.0486  13.0903   C.ar      1 RES1   0.0000
    76 C39     18.4956  15.0914  12.8139   C.ar      1 RES1   0.0000
    77 H39     18.3346  15.7364  13.4653   H         1 RES1   0.0000
    78 C40     17.8523  15.1913  11.5800   C.ar      1 RES1   0.0000
    79 H40     17.2700  15.8952  11.4103   H         1 RES1   0.0000
    80 C41     18.0934  14.2254  10.6064   C.ar      1 RES1   0.0000
    81 C42     18.9315  13.1810  10.8875   C.ar      1 RES1   0.0000
    82 H42     19.0706  12.5197  10.2478   H         1 RES1   0.0000
    83 C43     19.5781  13.0943  12.1168   C.ar      1 RES1   0.0000
    84 H43     20.1569  12.3855  12.2836   H         1 RES1   0.0000
    85 N1      15.1906  13.3546  20.5836   N.3       1 RES1   0.0000
    86 N2       9.0742  14.3503  19.4115   N.pl3     1 RES1   0.0000
    87 N3      17.0193   8.3663  17.6358   N.3       1 RES1   0.0000
    88 N4      13.2766   4.1874  14.3635   N.pl3     1 RES1   0.0000
    89 N5      19.0978  13.5248  15.4566   N.3       1 RES1   0.0000
    90 H1N     14.8673  13.6689  21.3690   H         1 RES1   0.0000
    91 H3N     16.0868   8.5615  17.7724   H         1 RES1   0.0000
    92 H5N     18.4315  14.0454  15.2253   H         1 RES1   0.0000
    93 C1       9.2715  11.1512   9.1535   C.ar      1 RES1   0.0000
    94 C2       8.5808  10.4538  10.1373   C.ar      1 RES1   0.0000
    95 C3       7.8105  11.1643  11.0878   C.ar      1 RES1   0.0000
    96 C4       7.7156  12.5377  11.0195   C.ar      1 RES1   0.0000
    97 C5       8.4532  13.2580  10.0485   C.ar      1 RES1   0.0000
    98 C6       9.2004  12.5574   9.0951   C.ar      1 RES1   0.0000
    99 C7      10.1025  10.4096   8.1161   C.3       1 RES1   0.0000
   100 H7A     10.3515   9.5486   8.4610   H         1 RES1   0.0000
   101 H7B     10.8935  10.9154   7.9191   H         1 RES1   0.0000
   102 H7C      9.5880  10.2983   7.3139   H         1 RES1   0.0000
   103 C8       7.0745  10.4014  12.1660   C.3       1 RES1   0.0000
   104 H8A      6.8941  10.9858  12.9060   H         1 RES1   0.0000
   105 H8B      7.6151   9.6664  12.4637   H         1 RES1   0.0000
   106 H8C      6.2456  10.0675  11.8125   H         1 RES1   0.0000
   107 C9       8.3916  14.7640  10.0717   C.3       1 RES1   0.0000
   108 H9A      9.1775  15.1225   9.6503   H         1 RES1   0.0000
   109 H9B      8.3488  15.0685  10.9794   H         1 RES1   0.0000
   110 H9C      7.6124  15.0587   9.5967   H         1 RES1   0.0000
   111 C10      9.9177  13.2744   7.9612   C.3       1 RES1   0.0000
   112 H10A     9.7047  12.7391   7.0036   H         1 RES1   0.0000
   113 H10B     9.5059  14.3089   7.8712   H         1 RES1   0.0000
   114 C11     11.7529  14.4219   9.0605   C.3       1 RES1   0.0000
   115 H11A    11.3140  14.2353  10.0621   H         1 RES1   0.0000
   116 H11B    11.3684  15.3943   8.6889   H         1 RES1   0.0000
   117 C12     13.2482  14.4726   9.1639   C.ar      1 RES1   0.0000
   118 C13     13.9248  13.6558  10.0678   C.ar      1 RES1   0.0000
   119 H13     13.4348  13.1221  10.6519   H         1 RES1   0.0000
   120 C14     15.3075  13.6148  10.1234   C.ar      1 RES1   0.0000
   121 H14     15.7368  13.0501  10.7266   H         1 RES1   0.0000
   122 C15     16.0586  14.4333   9.2648   C.ar      1 RES1   0.0000
   123 C16     15.3934  15.2813   8.3978   C.ar      1 RES1   0.0000
   124 H16     15.8795  15.8542   7.8501   H         1 RES1   0.0000
   125 C17     14.0123  15.2846   8.3404   C.ar      1 RES1   0.0000
   126 H17     13.5861  15.8461   7.7333   H         1 RES1   0.0000
   127 C18     18.2973  14.4988   8.1778   C.ar      1 RES1   0.0000
   128 C19     17.8134  14.2205   6.8914   C.ar      1 RES1   0.0000
   129 H19     16.9579  13.8719   6.7796   H         1 RES1   0.0000
   130 C20     18.6118  14.4644   5.7956   C.ar      1 RES1   0.0000
   131 H20     18.2770  14.2893   4.9468   H         1 RES1   0.0000
   132 C21     19.8852  14.9605   5.9177   C.ar      1 RES1   0.0000
   133 H21     20.3996  15.1405   5.1708   H         1 RES1   0.0000
   134 C22     20.3881  15.1864   7.1932   C.ar      1 RES1   0.0000
   135 H22     21.2588  15.4990   7.2928   H         1 RES1   0.0000
   136 C23     19.6248  14.9539   8.3004   C.ar      1 RES1   0.0000
   137 H23     19.9853  15.0996   9.1447   H         1 RES1   0.0000
   138 C24      8.5524   8.9511  10.1705   C.3       1 RES1   0.0000
   139 H24A     7.5966   8.6368  10.4528   H         1 RES1   0.0000
   140 H24B     8.7344   8.5876   9.2079   H         1 RES1   0.0000
   141 C25      9.2485   6.9523  11.3548   C.3       1 RES1   0.0000
   142 H25A     9.1385   6.4383  10.4183   H         1 RES1   0.0000
   143 H25B     8.3163   6.8770  11.8815   H         1 RES1   0.0000
   144 C26     10.3269   6.2762  12.1611   C.ar      1 RES1   0.0000
   145 C27     10.6352   6.6396  13.4614   C.ar      1 RES1   0.0000
   146 H27     10.1835   7.3484  13.8598   H         1 RES1   0.0000
   147 C28     11.6018   5.9636  14.1719   C.ar      1 RES1   0.0000
   148 H28     11.7913   6.2255  15.0433   H         1 RES1   0.0000
   149 C29     12.2953   4.9110  13.6242   C.ar      1 RES1   0.0000
   150 C30     11.9853   4.5492  12.3258   C.ar      1 RES1   0.0000
   151 H30     12.4346   3.8387  11.9255   H         1 RES1   0.0000
   152 C31     11.0180   5.2269  11.6133   C.ar      1 RES1   0.0000
   153 H31     10.8295   4.9666  10.7420   H         1 RES1   0.0000
   154 C33     14.4730   2.0790  14.3635   C.ar      1 RES1   0.0000
   155 H33     15.2836   2.5357  14.3635   H         1 RES1   0.0000
   156 C34     14.4549   0.6728  14.3673   C.ar      1 RES1   0.0000
   157 H34     15.2593   0.2063  14.3711   H         1 RES1   0.0000
   158 C36      6.8094  13.2678  11.9753   C.3       1 RES1   0.0000
   159 H36A     6.5417  14.1174  11.5769   H         1 RES1   0.0000
   160 H36B     6.0024  12.7358  12.1189   H         1 RES1   0.0000
   161 C37      6.5116  13.9488  14.2926   C.3       1 RES1   0.0000
   162 H37A     5.7386  13.2760  14.3453   H         1 RES1   0.0000
   163 H37B     6.1189  14.8622  14.0379   H         1 RES1   0.0000
   164 C38      7.1821  14.0486  15.6366   C.ar      1 RES1   0.0000
   165 C39      8.0576  15.0914  15.9130   C.ar      1 RES1   0.0000
   166 H39      8.2186  15.7364  15.2617   H         1 RES1   0.0000
   167 C40      8.7009  15.1913  17.1469   C.ar      1 RES1   0.0000
   168 H40      9.2832  15.8952  17.3166   H         1 RES1   0.0000
   169 C41      8.4598  14.2254  18.1206   C.ar      1 RES1   0.0000
   170 C42      7.6217  13.1810  17.8394   C.ar      1 RES1   0.0000
   171 H42      7.4826  12.5197  18.4791   H         1 RES1   0.0000
   172 C43      6.9751  13.0943  16.6101   C.ar      1 RES1   0.0000
   173 H43      6.3963  12.3855  16.4433   H         1 RES1   0.0000
   174 N1      11.3626  13.3546   8.1433   N.3       1 RES1   0.0000
   175 N2      17.4791  14.3503   9.3154   N.pl3     1 RES1   0.0000
   176 N3       9.5339   8.3663  11.0911   N.3       1 RES1   0.0000
   177 N5       7.4554  13.5248  13.2703   N.3       1 RES1   0.0000
   178 H1N     11.6859  13.6689   7.3579   H         1 RES1   0.0000
   179 H3N     10.4664   8.5615  10.9545   H         1 RES1   0.0000
   180 H5N      8.1217  14.0454  13.5017   H         1 RES1   0.0000
@<TRIPOS>BOND
     1     1     2   ar
     2     1     6   ar
     3     1     7    1
     4     2     3   ar
     5     2    46    1
     6     3     4   ar
     7     3    11    1
     8     4     5   ar
     9     4    69    1
    10     5     6   ar
    11     5    15    1
    12     6    19    1
    13     7     8    1
    14     7     9    1
    15     7    10    1
    16    11    12    1
    17    11    13    1
    18    11    14    1
    19    15    16    1
    20    15    17    1
    21    15    18    1
    22    19    20    1
    23    19    21    1
    24    19    85    1
    25    22    23    1
    26    22    24    1
    27    22    25    1
    28    22    85    1
    29    25    26   ar
    30    25    33   ar
    31    26    27    1
    32    26    28   ar
    33    28    29    1
    34    28    30   ar
    35    30    31   ar
    36    30    86    1
    37    31    32    1
    38    31    33   ar
    39    33    34    1
    40    35    36   ar
    41    35    44   ar
    42    35    86    1
    43    36    37    1
    44    36    38   ar
    45    38    39    1
    46    38    40   ar
    47    40    41    1
    48    40    42   ar
    49    42    43    1
    50    42    44   ar
    51    44    45    1
    52    46    47    1
    53    46    48    1
    54    46    87    1
    55    49    50    1
    56    49    51    1
    57    49    52    1
    58    49    87    1
    59    52    53   ar
    60    52    60   ar
    61    53    54    1
    62    53    55   ar
    63    55    56    1
    64    55    57   ar
    65    57    58   ar
    66    57    88    1
    67    58    59    1
    68    58    60   ar
    69    60    61    1
    70    62    63   ar
    71    62    88    1
    72    62   154   ar
    73    63    64    1
    74    63    65   ar
    75    65    66    1
    76    65    67   ar
    77    67    68    1
    78    67   156   ar
    79    69    70    1
    80    69    71    1
    81    69    89    1
    82    72    73    1
    83    72    74    1
    84    72    75    1
    85    72    89    1
    86    75    76   ar
    87    75    83   ar
    88    76    77    1
    89    76    78   ar
    90    78    79    1
    91    78    80   ar
    92    80    81   ar
    93    80   175    1
    94    81    82    1
    95    81    83   ar
    96    83    84    1
    97    85    90    1
    98    86   169    1
    99    87    91    1
   100    88   149    1
   101    89    92    1
   102    93    94   ar
   103    93    98   ar
   104    93    99    1
   105    94    95   ar
   106    94   138    1
   107    95    96   ar
   108    95   103    1
   109    96    97   ar
   110    96   158    1
   111    97    98   ar
   112    97   107    1
   113    98   111    1
   114    99   100    1
   115    99   101    1
   116    99   102    1
   117   103   104    1
   118   103   105    1
   119   103   106    1
   120   107   108    1
   121   107   109    1
   122   107   110    1
   123   111   112    1
   124   111   113    1
   125   111   174    1
   126   114   115    1
   127   114   116    1
   128   114   117    1
   129   114   174    1
   130   117   118   ar
   131   117   125   ar
   132   118   119    1
   133   118   120   ar
   134   120   121    1
   135   120   122   ar
   136   122   123   ar
   137   122   175    1
   138   123   124    1
   139   123   125   ar
   140   125   126    1
   141   127   128   ar
   142   127   136   ar
   143   127   175    1
   144   128   129    1
   145   128   130   ar
   146   130   131    1
   147   130   132   ar
   148   132   133    1
   149   132   134   ar
   150   134   135    1
   151   134   136   ar
   152   136   137    1
   153   138   139    1
   154   138   140    1
   155   138   176    1
   156   141   142    1
   157   141   143    1
   158   141   144    1
   159   141   176    1
   160   144   145   ar
   161   144   152   ar
   162   145   146    1
   163   145   147   ar
   164   147   148    1
   165   147   149   ar
   166   149   150   ar
   167   150   151    1
   168   150   152   ar
   169   152   153    1
   170   154   155    1
   171   154   156   ar
   172   156   157    1
   173   158   159    1
   174   158   160    1
   175   158   177    1
   176   161   162    1
   177   161   163    1
   178   161   164    1
   179   161   177    1
   180   164   165   ar
   181   164   172   ar
   182   165   166    1
   183   165   167   ar
   184   167   168    1
   185   167   169   ar
   186   169   170   ar
   187   170   171    1
   188   170   172   ar
   189   172   173    1
   190   174   178    1
   191   176   179    1
   192   177   180    1
@<TRIPOS>SUBSTRUCTURE
     1 RES1        1 GROUP             0 ****  ****    0  
@<TRIPOS>CRYSIN
   26.9032   16.3699   19.1527   90.0000   90.6980   90.0000    15     1
 

