@<TRIPOS>MOLECULE
*****
 222 240 0 0 0
SMALL
USER_CHARGES

@<TRIPOS>ATOM
      1 C1         -3.2429    2.7503    4.6368 C.ar    1  RES11      -0.0529
      2 H1         -3.0358    2.2081    5.3891 H       1  RES11       0.0624
      3 C2         -4.3345    2.4429    3.8488 C.ar    1  RES11      -0.0327
      4 C3         -5.1839    1.2105    4.1025 C.3     1  RES11       0.0261
      5 C4         -6.0750   -0.3879    5.6599 C.3     1  RES11       0.0280
      6 C5         -5.2236   -1.6297    5.4421 C.3     1  RES11      -0.0358
      7 H5A        -4.4544   -1.6172    6.0666 H       1  RES11       0.0281
      8 H5B        -4.8696   -1.6300    4.5181 H       1  RES11       0.0281
      9 C6         -6.0518   -2.8983    5.6726 C.3     1  RES11      -0.0515
     10 H6A        -6.7644   -2.9543    4.9867 H       1  RES11       0.0266
     11 H6B        -5.4706   -3.6929    5.5751 H       1  RES11       0.0266
     12 H3BC       -6.0742    1.3524    3.6955 H       1  RES11       0.0476
     13 H3BD       -4.7652    0.4406    3.6445 H       1  RES11       0.0476
     14 H4B        -6.8307   -0.4049    5.0046 H       1  RES11       0.0479
     15 C7         -6.3671    1.8567    6.3671 C.3     1  RES11       0.0766
     16 N1B        -5.3637    0.8726    5.5099 N.3     1  RES11      -0.2757
     17 C8         -5.4604    2.7328    7.2127 C.3     1  RES11      -0.0179
     18 H8B        -5.9851    3.4561    7.6176 H       1  RES11       0.0297
     19 H8C        -4.7575    3.1199    6.6473 H       1  RES11       0.0297
     20 C1         -2.7503    4.6368    3.2429 C.ar    1  RES11      -0.0529
     21 H1         -2.2081    5.3891    3.0358 H       1  RES11       0.0624
     22 C2         -2.4429    3.8488    4.3345 C.ar    1  RES11      -0.0327
     23 C3         -1.2105    4.1025    5.1839 C.3     1  RES11       0.0261
     24 C4          0.3879    5.6599    6.0750 C.3     1  RES11       0.0280
     25 C5          1.6297    5.4421    5.2236 C.3     1  RES11      -0.0358
     26 H5A         1.6172    6.0666    4.4544 H       1  RES11       0.0281
     27 H5B         1.6300    4.5181    4.8696 H       1  RES11       0.0281
     28 C6          2.8983    5.6726    6.0518 C.3     1  RES11      -0.0515
     29 H6A         2.9543    4.9867    6.7644 H       1  RES11       0.0266
     30 H6B         3.6929    5.5751    5.4706 H       1  RES11       0.0266
     31 H3BC       -1.3524    3.6955    6.0742 H       1  RES11       0.0476
     32 H3BD       -0.4406    3.6445    4.7652 H       1  RES11       0.0476
     33 H4B         0.4049    5.0046    6.8307 H       1  RES11       0.0479
     34 C7         -1.8567    6.3671    6.3671 C.3     1  RES11       0.0766
     35 N1B        -0.8726    5.5099    5.3637 N.3     1  RES11      -0.2757
     36 C8         -2.7328    7.2127    5.4604 C.3     1  RES11      -0.0179
     37 H8B        -3.4561    7.6176    5.9851 H       1  RES11       0.0297
     38 H8C        -3.1199    6.6473    4.7575 H       1  RES11       0.0297
     39 C1         -4.6368    3.2429    2.7503 C.ar    1  RES11      -0.0529
     40 H1         -5.3891    3.0358    2.2081 H       1  RES11       0.0624
     41 C2         -3.8488    4.3345    2.4429 C.ar    1  RES11      -0.0327
     42 C3         -4.1025    5.1839    1.2105 C.3     1  RES11       0.0261
     43 C4         -5.6599    6.0750   -0.3879 C.3     1  RES11       0.0280
     44 C5         -5.4421    5.2236   -1.6297 C.3     1  RES11      -0.0358
     45 H5A        -6.0666    4.4544   -1.6172 H       1  RES11       0.0281
     46 H5B        -4.5181    4.8696   -1.6300 H       1  RES11       0.0281
     47 C6         -5.6726    6.0518   -2.8983 C.3     1  RES11      -0.0515
     48 H6A        -4.9867    6.7644   -2.9543 H       1  RES11       0.0266
     49 H6B        -5.5751    5.4706   -3.6929 H       1  RES11       0.0266
     50 H3BC       -3.6955    6.0742    1.3524 H       1  RES11       0.0476
     51 H3BD       -3.6445    4.7652    0.4406 H       1  RES11       0.0476
     52 H4B        -5.0046    6.8307   -0.4049 H       1  RES11       0.0479
     53 C7         -6.3671    6.3671    1.8567 C.3     1  RES11       0.0766
     54 N1B        -5.5099    5.3637    0.8726 N.3     1  RES11      -0.2757
     55 C8         -7.2127    5.4604    2.7328 C.3     1  RES11      -0.0179
     56 H8B        -7.6176    5.9851    3.4561 H       1  RES11       0.0297
     57 H8C        -6.6473    4.7575    3.1199 H       1  RES11       0.0297
     58 C1         -2.7503    8.0975    9.4913 C.ar    1  RES11      -0.0529
     59 H1         -2.2081    7.3451    9.6984 H       1  RES11       0.0624
     60 C2         -2.4429    8.8855    8.3998 C.ar    1  RES11      -0.0327
     61 C3         -1.2105    8.6318    7.5504 C.3     1  RES11       0.0261
     62 C4          0.3879    7.0744    6.6592 C.3     1  RES11       0.0280
     63 C5          1.6297    7.2921    7.5107 C.3     1  RES11      -0.0358
     64 H5A         1.6172    6.6677    8.2798 H       1  RES11       0.0281
     65 H5B         1.6300    8.2161    7.8647 H       1  RES11       0.0281
     66 C6          2.8983    7.0617    6.6824 C.3     1  RES11      -0.0515
     67 H6A         2.9543    7.7475    5.9698 H       1  RES11       0.0266
     68 H6B         3.6929    7.1592    7.2636 H       1  RES11       0.0266
     69 H3BC       -1.3524    9.0388    6.6600 H       1  RES11       0.0476
     70 H3BD       -0.4406    9.0897    7.9691 H       1  RES11       0.0476
     71 H4B         0.4049    7.7297    5.9036 H       1  RES11       0.0479
     72 N1B        -0.8726    7.2244    7.3706 N.3     1  RES11      -0.2757
     73 C8         -2.7328    5.5216    7.2738 C.3     1  RES11      -0.0179
     74 H8B        -3.4561    5.1166    6.7492 H       1  RES11       0.0297
     75 H8C        -3.1199    6.0870    7.9767 H       1  RES11       0.0297
     76 C1         -9.4913    2.7503    8.0975 C.ar    1  RES11      -0.0529
     77 H1         -9.6984    2.2081    7.3451 H       1  RES11       0.0624
     78 C2         -8.3998    2.4429    8.8855 C.ar    1  RES11      -0.0327
     79 C3         -7.5504    1.2105    8.6318 C.3     1  RES11       0.0261
     80 C4         -6.6592   -0.3879    7.0744 C.3     1  RES11       0.0280
     81 C5         -7.5107   -1.6297    7.2921 C.3     1  RES11      -0.0358
     82 H5A        -8.2798   -1.6172    6.6677 H       1  RES11       0.0281
     83 H5B        -7.8647   -1.6300    8.2161 H       1  RES11       0.0281
     84 C6         -6.6824   -2.8983    7.0617 C.3     1  RES11      -0.0515
     85 H6A        -5.9698   -2.9543    7.7475 H       1  RES11       0.0266
     86 H6B        -7.2636   -3.6929    7.1592 H       1  RES11       0.0266
     87 H3BC       -6.6600    1.3524    9.0388 H       1  RES11       0.0476
     88 H3BD       -7.9691    0.4406    9.0897 H       1  RES11       0.0476
     89 H4B        -5.9036   -0.4049    7.7297 H       1  RES11       0.0479
     90 N1B        -7.3706    0.8726    7.2244 N.3     1  RES11      -0.2757
     91 C8         -7.2738    2.7328    5.5216 C.3     1  RES11      -0.0179
     92 H8B        -6.7492    3.4561    5.1166 H       1  RES11       0.0297
     93 H8C        -7.9767    3.1199    6.0870 H       1  RES11       0.0297
     94 C1         -3.2429    9.9839    8.0975 C.ar    1  RES11      -0.0529
     95 H1         -3.0358   10.5261    7.3451 H       1  RES11       0.0624
     96 C2         -4.3345   10.2913    8.8855 C.ar    1  RES11      -0.0327
     97 C3         -5.1839   11.5237    8.6318 C.3     1  RES11       0.0261
     98 C4         -6.0750   13.1221    7.0744 C.3     1  RES11       0.0280
     99 C5         -5.2236   14.3640    7.2921 C.3     1  RES11      -0.0358
    100 H5A        -4.4544   14.3515    6.6677 H       1  RES11       0.0281
    101 H5B        -4.8696   14.3642    8.2161 H       1  RES11       0.0281
    102 C6         -6.0518   15.6326    7.0617 C.3     1  RES11      -0.0515
    103 H6A        -6.7644   15.6886    7.7475 H       1  RES11       0.0266
    104 H6B        -5.4706   16.4272    7.1592 H       1  RES11       0.0266
    105 H3BC       -6.0742   11.3819    9.0388 H       1  RES11       0.0476
    106 H3BD       -4.7652   12.2936    9.0897 H       1  RES11       0.0476
    107 H4B        -6.8307   13.1392    7.7297 H       1  RES11       0.0479
    108 C7         -6.3671   10.8776    6.3671 C.3     1  RES11       0.0766
    109 N1B        -5.3637   11.8617    7.2244 N.3     1  RES11      -0.2757
    110 C8         -5.4604   10.0015    5.5216 C.3     1  RES11      -0.0179
    111 H8B        -5.9851    9.2782    5.1166 H       1  RES11       0.0297
    112 H8C        -4.7575    9.6144    6.0870 H       1  RES11       0.0297
    113 C1         -4.6368    9.4913    9.9839 C.ar    1  RES11      -0.0529
    114 H1         -5.3891    9.6984   10.5261 H       1  RES11       0.0624
    115 C2         -3.8488    8.3998   10.2913 C.ar    1  RES11      -0.0327
    116 C3         -4.1025    7.5504   11.5237 C.3     1  RES11       0.0261
    117 C4         -5.6599    6.6592   13.1221 C.3     1  RES11       0.0280
    118 C5         -5.4421    7.5107   14.3640 C.3     1  RES11      -0.0358
    119 H5A        -6.0666    8.2798   14.3515 H       1  RES11       0.0281
    120 H5B        -4.5181    7.8647   14.3642 H       1  RES11       0.0281
    121 C6         -5.6726    6.6824   15.6326 C.3     1  RES11      -0.0515
    122 H6A        -4.9867    5.9698   15.6886 H       1  RES11       0.0266
    123 H6B        -5.5751    7.2636   16.4272 H       1  RES11       0.0266
    124 H3BC       -3.6955    6.6600   11.3819 H       1  RES11       0.0476
    125 H3BD       -3.6445    7.9691   12.2936 H       1  RES11       0.0476
    126 H4B        -5.0046    5.9036   13.1392 H       1  RES11       0.0479
    127 C7         -6.3671    6.3671   10.8776 C.3     1  RES11       0.0766
    128 N1B        -5.5099    7.3706   11.8617 N.3     1  RES11      -0.2757
    129 C8         -7.2127    7.2738   10.0015 C.3     1  RES11      -0.0179
    130 H8B        -7.6176    6.7492    9.2782 H       1  RES11       0.0297
    131 H8C        -6.6473    7.9767    9.6144 H       1  RES11       0.0297
    132 C1         -9.9839    4.6368    9.4913 C.ar    1  RES11      -0.0529
    133 H1        -10.5261    5.3891    9.6984 H       1  RES11       0.0624
    134 C2        -10.2913    3.8488    8.3998 C.ar    1  RES11      -0.0327
    135 C3        -11.5237    4.1025    7.5504 C.3     1  RES11       0.0261
    136 C4        -13.1221    5.6599    6.6592 C.3     1  RES11       0.0280
    137 C5        -14.3640    5.4421    7.5107 C.3     1  RES11      -0.0358
    138 H5A       -14.3515    6.0666    8.2798 H       1  RES11       0.0281
    139 H5B       -14.3642    4.5181    7.8647 H       1  RES11       0.0281
    140 C6        -15.6326    5.6726    6.6824 C.3     1  RES11      -0.0515
    141 H6A       -15.6886    4.9867    5.9698 H       1  RES11       0.0266
    142 H6B       -16.4272    5.5751    7.2636 H       1  RES11       0.0266
    143 H3BC      -11.3819    3.6955    6.6600 H       1  RES11       0.0476
    144 H3BD      -12.2936    3.6445    7.9691 H       1  RES11       0.0476
    145 H4B       -13.1392    5.0046    5.9036 H       1  RES11       0.0479
    146 C7        -10.8776    6.3671    6.3671 C.3     1  RES11       0.0766
    147 N1B       -11.8617    5.5099    7.3706 N.3     1  RES11      -0.2757
    148 C8        -10.0015    7.2127    7.2738 C.3     1  RES11      -0.0179
    149 H8B        -9.2782    7.6176    6.7492 H       1  RES11       0.0297
    150 H8C        -9.6144    6.6473    7.9767 H       1  RES11       0.0297
    151 C1         -8.0975    3.2429    9.9839 C.ar    1  RES11      -0.0529
    152 H1         -7.3451    3.0358   10.5261 H       1  RES11       0.0624
    153 C2         -8.8855    4.3345   10.2913 C.ar    1  RES11      -0.0327
    154 C3         -8.6318    5.1839   11.5237 C.3     1  RES11       0.0261
    155 C4         -7.0744    6.0750   13.1221 C.3     1  RES11       0.0280
    156 C5         -7.2921    5.2236   14.3640 C.3     1  RES11      -0.0358
    157 H5A        -6.6677    4.4544   14.3515 H       1  RES11       0.0281
    158 H5B        -8.2161    4.8696   14.3642 H       1  RES11       0.0281
    159 C6         -7.0617    6.0518   15.6326 C.3     1  RES11      -0.0515
    160 H6A        -7.7475    6.7644   15.6886 H       1  RES11       0.0266
    161 H6B        -7.1592    5.4706   16.4272 H       1  RES11       0.0266
    162 H3BC       -9.0388    6.0742   11.3819 H       1  RES11       0.0476
    163 H3BD       -9.0897    4.7652   12.2936 H       1  RES11       0.0476
    164 H4B        -7.7297    6.8307   13.1392 H       1  RES11       0.0479
    165 N1B        -7.2244    5.3637   11.8617 N.3     1  RES11      -0.2757
    166 C8         -5.5216    5.4604   10.0015 C.3     1  RES11      -0.0179
    167 H8B        -5.1166    5.9851    9.2782 H       1  RES11       0.0297
    168 H8C        -6.0870    4.7575    9.6144 H       1  RES11       0.0297
    169 C1         -9.4913    9.9839    4.6368 C.ar    1  RES11      -0.0529
    170 H1         -9.6984   10.5261    5.3891 H       1  RES11       0.0624
    171 C2         -8.3998   10.2913    3.8488 C.ar    1  RES11      -0.0327
    172 C3         -7.5504   11.5237    4.1025 C.3     1  RES11       0.0261
    173 C4         -6.6592   13.1221    5.6599 C.3     1  RES11       0.0280
    174 C5         -7.5107   14.3640    5.4421 C.3     1  RES11      -0.0358
    175 H5A        -8.2798   14.3515    6.0666 H       1  RES11       0.0281
    176 H5B        -7.8647   14.3642    4.5181 H       1  RES11       0.0281
    177 C6         -6.6824   15.6326    5.6726 C.3     1  RES11      -0.0515
    178 H6A        -5.9698   15.6886    4.9867 H       1  RES11       0.0266
    179 H6B        -7.2636   16.4272    5.5751 H       1  RES11       0.0266
    180 H3BC       -6.6600   11.3819    3.6955 H       1  RES11       0.0476
    181 H3BD       -7.9691   12.2936    3.6445 H       1  RES11       0.0476
    182 H4B        -5.9036   13.1392    5.0046 H       1  RES11       0.0479
    183 N1B        -7.3706   11.8617    5.5099 N.3     1  RES11      -0.2757
    184 C8         -7.2738   10.0015    7.2127 C.3     1  RES11      -0.0179
    185 H8B        -6.7492    9.2782    7.6176 H       1  RES11       0.0297
    186 H8C        -7.9767    9.6144    6.6473 H       1  RES11       0.0297
    187 C1         -8.0975    9.4913    2.7503 C.ar    1  RES11      -0.0529
    188 H1         -7.3451    9.6984    2.2081 H       1  RES11       0.0624
    189 C2         -8.8855    8.3998    2.4429 C.ar    1  RES11      -0.0327
    190 C3         -8.6318    7.5504    1.2105 C.3     1  RES11       0.0261
    191 C4         -7.0744    6.6592   -0.3879 C.3     1  RES11       0.0280
    192 C5         -7.2921    7.5107   -1.6297 C.3     1  RES11      -0.0358
    193 H5A        -6.6677    8.2798   -1.6172 H       1  RES11       0.0281
    194 H5B        -8.2161    7.8647   -1.6300 H       1  RES11       0.0281
    195 C6         -7.0617    6.6824   -2.8983 C.3     1  RES11      -0.0515
    196 H6A        -7.7475    5.9698   -2.9543 H       1  RES11       0.0266
    197 H6B        -7.1592    7.2636   -3.6929 H       1  RES11       0.0266
    198 H3BC       -9.0388    6.6600    1.3524 H       1  RES11       0.0476
    199 H3BD       -9.0897    7.9691    0.4406 H       1  RES11       0.0476
    200 H4B        -7.7297    5.9036   -0.4049 H       1  RES11       0.0479
    201 N1B        -7.2244    7.3706    0.8726 N.3     1  RES11      -0.2757
    202 C8         -5.5216    7.2738    2.7328 C.3     1  RES11      -0.0179
    203 H8B        -5.1166    6.7492    3.4561 H       1  RES11       0.0297
    204 H8C        -6.0870    7.9767    3.1199 H       1  RES11       0.0297
    205 C1         -9.9839    8.0975    3.2429 C.ar    1  RES11      -0.0529
    206 H1        -10.5261    7.3451    3.0358 H       1  RES11       0.0624
    207 C2        -10.2913    8.8855    4.3345 C.ar    1  RES11      -0.0327
    208 C3        -11.5237    8.6318    5.1839 C.3     1  RES11       0.0261
    209 C4        -13.1221    7.0744    6.0750 C.3     1  RES11       0.0280
    210 C5        -14.3640    7.2921    5.2236 C.3     1  RES11      -0.0358
    211 H5A       -14.3515    6.6677    4.4544 H       1  RES11       0.0281
    212 H5B       -14.3642    8.2161    4.8696 H       1  RES11       0.0281
    213 C6        -15.6326    7.0617    6.0518 C.3     1  RES11      -0.0515
    214 H6A       -15.6886    7.7475    6.7644 H       1  RES11       0.0266
    215 H6B       -16.4272    7.1592    5.4706 H       1  RES11       0.0266
    216 H3BC      -11.3819    9.0388    6.0742 H       1  RES11       0.0476
    217 H3BD      -12.2936    9.0897    4.7652 H       1  RES11       0.0476
    218 H4B       -13.1392    7.7297    6.8307 H       1  RES11       0.0479
    219 N1B       -11.8617    7.2244    5.3637 N.3     1  RES11      -0.2757
    220 C8        -10.0015    5.5216    5.4604 C.3     1  RES11      -0.0179
    221 H8B        -9.2782    5.1166    5.9851 H       1  RES11       0.0297
    222 H8C        -9.6144    6.0870    4.7575 H       1  RES11       0.0297
@<TRIPOS>BOND
     1     1     2    1
     2     1     3   ar
     3     1    22   ar
     4     3     4    1
     5     3    39   ar
     6     4    12    1
     7     4    13    1
     8     4    16    1
     9     5     6    1
    10     5    14    1
    11     5    16    1
    12     5    80    1
    13     6     7    1
    14     6     8    1
    15     6     9    1
    16     9    10    1
    17     9    11    1
    18     9    84    1
    19    15    16    1
    20    15    17    1
    21    15    90    1
    22    15    91    1
    23    17    18    1
    24    17    19    1
    25    20    21    1
    26    20    22   ar
    27    20    41   ar
    28    22    23    1
    29    23    31    1
    30    23    32    1
    31    23    35    1
    32    24    25    1
    33    24    33    1
    34    24    35    1
    35    24    62    1
    36    25    26    1
    37    25    27    1
    38    25    28    1
    39    28    29    1
    40    28    30    1
    41    28    66    1
    42    34    35    1
    43    34    36    1
    44    34    72    1
    45    34    73    1
    46    36    37    1
    47    36    38    1
    48    39    40    1
    49    39    41   ar
    50    41    42    1
    51    42    50    1
    52    42    51    1
    53    42    54    1
    54    43    44    1
    55    43    52    1
    56    43    54    1
    57    43   191    1
    58    44    45    1
    59    44    46    1
    60    44    47    1
    61    47    48    1
    62    47    49    1
    63    47   195    1
    64    53    54    1
    65    53    55    1
    66    53   201    1
    67    53   202    1
    68    55    56    1
    69    55    57    1
    70    58    59    1
    71    58    60   ar
    72    58   115   ar
    73    60    61    1
    74    60    94   ar
    75    61    69    1
    76    61    70    1
    77    61    72    1
    78    62    63    1
    79    62    71    1
    80    62    72    1
    81    63    64    1
    82    63    65    1
    83    63    66    1
    84    66    67    1
    85    66    68    1
    86    73    74    1
    87    73    75    1
    88    76    77    1
    89    76    78   ar
    90    76   134   ar
    91    78    79    1
    92    78   151   ar
    93    79    87    1
    94    79    88    1
    95    79    90    1
    96    80    81    1
    97    80    89    1
    98    80    90    1
    99    81    82    1
   100    81    83    1
   101    81    84    1
   102    84    85    1
   103    84    86    1
   104    91    92    1
   105    91    93    1
   106    94    95    1
   107    94    96   ar
   108    96    97    1
   109    96   113   ar
   110    97   105    1
   111    97   106    1
   112    97   109    1
   113    98    99    1
   114    98   107    1
   115    98   109    1
   116    98   173    1
   117    99   100    1
   118    99   101    1
   119    99   102    1
   120   102   103    1
   121   102   104    1
   122   102   177    1
   123   108   109    1
   124   108   110    1
   125   108   183    1
   126   108   184    1
   127   110   111    1
   128   110   112    1
   129   113   114    1
   130   113   115   ar
   131   115   116    1
   132   116   124    1
   133   116   125    1
   134   116   128    1
   135   117   118    1
   136   117   126    1
   137   117   128    1
   138   117   155    1
   139   118   119    1
   140   118   120    1
   141   118   121    1
   142   121   122    1
   143   121   123    1
   144   121   159    1
   145   127   128    1
   146   127   129    1
   147   127   165    1
   148   127   166    1
   149   129   130    1
   150   129   131    1
   151   132   133    1
   152   132   134   ar
   153   132   153   ar
   154   134   135    1
   155   135   143    1
   156   135   144    1
   157   135   147    1
   158   136   137    1
   159   136   145    1
   160   136   147    1
   161   136   209    1
   162   137   138    1
   163   137   139    1
   164   137   140    1
   165   140   141    1
   166   140   142    1
   167   140   213    1
   168   146   147    1
   169   146   148    1
   170   146   219    1
   171   146   220    1
   172   148   149    1
   173   148   150    1
   174   151   152    1
   175   151   153   ar
   176   153   154    1
   177   154   162    1
   178   154   163    1
   179   154   165    1
   180   155   156    1
   181   155   164    1
   182   155   165    1
   183   156   157    1
   184   156   158    1
   185   156   159    1
   186   159   160    1
   187   159   161    1
   188   166   167    1
   189   166   168    1
   190   169   170    1
   191   169   171   ar
   192   169   207   ar
   193   171   172    1
   194   171   187   ar
   195   172   180    1
   196   172   181    1
   197   172   183    1
   198   173   174    1
   199   173   182    1
   200   173   183    1
   201   174   175    1
   202   174   176    1
   203   174   177    1
   204   177   178    1
   205   177   179    1
   206   184   185    1
   207   184   186    1
   208   187   188    1
   209   187   189   ar
   210   189   190    1
   211   189   205   ar
   212   190   198    1
   213   190   199    1
   214   190   201    1
   215   191   192    1
   216   191   200    1
   217   191   201    1
   218   192   193    1
   219   192   194    1
   220   192   195    1
   221   195   196    1
   222   195   197    1
   223   202   203    1
   224   202   204    1
   225   205   206    1
   226   205   207   ar
   227   207   208    1
   228   208   216    1
   229   208   217    1
   230   208   219    1
   231   209   210    1
   232   209   218    1
   233   209   219    1
   234   210   211    1
   235   210   212    1
   236   210   213    1
   237   213   214    1
   238   213   215    1
   239   220   221    1
   240   220   222    1
