@<TRIPOS>MOLECULE
*****
 198 216 0 0 0
SMALL
GASTEIGER

@<TRIPOS>ATOM
      1 C6         12.0102   12.9869    9.2169 C.3     1  RES11      -0.0515
      2 H6A        11.9061   13.5501   10.0237 H       1  RES11       0.0266
      3 H6B        11.3328   12.2639    9.2651 H       1  RES11       0.0266
      4 C5         11.7412   13.8444    7.9662 C.3     1  RES11      -0.0358
      5 H5A        10.8102   14.1768    7.9662 H       1  RES11       0.0281
      6 H5B        12.3552   14.6207    7.9408 H       1  RES11       0.0281
      7 C4         11.9797   12.9387    6.7662 C.3     1  RES11       0.0275
      8 H4         11.3556   12.1624    6.8195 H       1  RES11       0.0478
      9 N1         11.8732   13.5450    5.4449 N.3     1  RES11      -0.2809
     10 C3         10.4905   13.6567    5.0004 C.3     1  RES11       0.0256
     11 H3A         9.9476   14.0195    5.7438 H       1  RES11       0.0476
     12 H3B        10.1505   12.7484    4.8000 H       1  RES11       0.0476
     13 C2         10.2774   14.5472    3.7522 C.ar    1  RES11      -0.0327
     14 C1          9.2042   14.2579    2.9150 C.ar    1  RES11      -0.0529
     15 H1          8.6664   13.4892    3.0698 H       1  RES11       0.0624
     16 C7         12.6850   12.6850    4.5691 C.3     1  RES11       0.0531
     17 H7A        13.2685   13.2381    3.9907 H       1  RES11       0.0595
     18 C6         13.3598   12.3831    9.2169 C.3     1  RES11      -0.0515
     19 H6A        13.4639   11.8199   10.0237 H       1  RES11       0.0266
     20 H6B        14.0372   13.1061    9.2651 H       1  RES11       0.0266
     21 C5         13.6288   11.5256    7.9662 C.3     1  RES11      -0.0358
     22 H5A        14.5598   11.1932    7.9662 H       1  RES11       0.0281
     23 H5B        13.0148   10.7493    7.9408 H       1  RES11       0.0281
     24 C4         13.3903   12.4313    6.7662 C.3     1  RES11       0.0275
     25 H4         14.0144   13.2076    6.8195 H       1  RES11       0.0478
     26 N1         13.4968   11.8250    5.4449 N.3     1  RES11      -0.2809
     27 C3         14.8795   11.7133    5.0004 C.3     1  RES11       0.0256
     28 H3A        15.4224   11.3505    5.7438 H       1  RES11       0.0476
     29 H3B        15.2195   12.6216    4.8000 H       1  RES11       0.0476
     30 C2         15.0926   10.8228    3.7522 C.ar    1  RES11      -0.0327
     31 C1         16.1658   11.1121    2.9150 C.ar    1  RES11      -0.0529
     32 H1         16.7036   11.8808    3.0698 H       1  RES11       0.0624
     33 H7A        12.1015   12.1319    3.9907 H       1  RES11       0.0595
     34 C6         12.3831   21.9019    0.6748 C.3     1  RES11      -0.0515
     35 H6A        11.8199   22.7087    0.7789 H       1  RES11       0.0266
     36 H6B        13.1061   21.9501    1.3522 H       1  RES11       0.0266
     37 C5         11.5256   20.6512    0.9438 C.3     1  RES11      -0.0358
     38 H5A        11.1932   20.6512    1.8748 H       1  RES11       0.0281
     39 H5B        10.7493   20.6258    0.3298 H       1  RES11       0.0281
     40 C4         12.4313   19.4512    0.7053 C.3     1  RES11       0.0275
     41 H4         13.2076   19.5045    1.3294 H       1  RES11       0.0478
     42 N1         11.8250   18.1299    0.8118 N.3     1  RES11      -0.2809
     43 C3         11.7133   17.6854    2.1945 C.3     1  RES11       0.0256
     44 H3A        11.3505   18.4288    2.7374 H       1  RES11       0.0476
     45 H3B        12.6216   17.4850    2.5345 H       1  RES11       0.0476
     46 C2         10.8228   16.4372    2.4076 C.ar    1  RES11      -0.0327
     47 C1         11.1121   15.6000    3.4808 C.ar    1  RES11      -0.0529
     48 H1         11.8808   15.7548    4.0186 H       1  RES11       0.0624
     49 C7         12.6850   17.2541    0.0000 C.3     1  RES11       0.0531
     50 H7A        12.1319   16.6757   -0.5835 H       1  RES11       0.0595
     51 C6          3.4681   13.3598    0.3019 C.3     1  RES11      -0.0515
     52 H6A         2.6613   13.4639    0.8651 H       1  RES11       0.0266
     53 H6B         3.4199   14.0372   -0.4211 H       1  RES11       0.0266
     54 C5          4.7188   13.6288    1.1594 C.3     1  RES11      -0.0358
     55 H5A         4.7188   14.5598    1.4918 H       1  RES11       0.0281
     56 H5B         4.7442   13.0148    1.9357 H       1  RES11       0.0281
     57 C4          5.9188   13.3903    0.2537 C.3     1  RES11       0.0275
     58 H4          5.8655   14.0144   -0.5226 H       1  RES11       0.0478
     59 N1          7.2401   13.4968    0.8600 N.3     1  RES11      -0.2809
     60 C3          7.6846   14.8795    0.9717 C.3     1  RES11       0.0256
     61 H3A         6.9412   15.4224    1.3345 H       1  RES11       0.0476
     62 H3B         7.8850   15.2195    0.0634 H       1  RES11       0.0476
     63 C2          8.9328   15.0926    1.8622 C.ar    1  RES11      -0.0327
     64 C1          9.7700   16.1658    1.5729 C.ar    1  RES11      -0.0529
     65 H1          9.6152   16.7036    0.8042 H       1  RES11       0.0624
     66 C7          8.1159   12.6850    0.0000 C.3     1  RES11       0.0531
     67 H7A         8.6943   12.1015    0.5531 H       1  RES11       0.0595
     68 C6         12.9869   21.9019   -0.6748 C.3     1  RES11      -0.0515
     69 H6A        13.5501   22.7087   -0.7789 H       1  RES11       0.0266
     70 H6B        12.2639   21.9501   -1.3522 H       1  RES11       0.0266
     71 C5         13.8444   20.6512   -0.9438 C.3     1  RES11      -0.0358
     72 H5A        14.1768   20.6512   -1.8748 H       1  RES11       0.0281
     73 H5B        14.6207   20.6258   -0.3298 H       1  RES11       0.0281
     74 C4         12.9387   19.4512   -0.7053 C.3     1  RES11       0.0275
     75 H4         12.1624   19.5045   -1.3294 H       1  RES11       0.0478
     76 N1         13.5450   18.1299   -0.8118 N.3     1  RES11      -0.2809
     77 C3         13.6567   17.6854   -2.1945 C.3     1  RES11       0.0256
     78 H3A        14.0195   18.4288   -2.7374 H       1  RES11       0.0476
     79 H3B        12.7484   17.4850   -2.5345 H       1  RES11       0.0476
     80 C2         14.5472   16.4372   -2.4076 C.ar    1  RES11      -0.0327
     81 C1         14.2579   15.6000   -3.4808 C.ar    1  RES11      -0.0529
     82 H1         13.4892   15.7548   -4.0186 H       1  RES11       0.0624
     83 H7A        13.2381   16.6757    0.5835 H       1  RES11       0.0595
     84 C6         12.9869    3.4681    0.6748 C.3     1  RES11      -0.0515
     85 H6A        13.5501    2.6613    0.7789 H       1  RES11       0.0266
     86 H6B        12.2639    3.4199    1.3522 H       1  RES11       0.0266
     87 C5         13.8444    4.7188    0.9438 C.3     1  RES11      -0.0358
     88 H5A        14.1768    4.7188    1.8748 H       1  RES11       0.0281
     89 H5B        14.6207    4.7442    0.3298 H       1  RES11       0.0281
     90 C4         12.9387    5.9188    0.7053 C.3     1  RES11       0.0275
     91 H4         12.1624    5.8655    1.3294 H       1  RES11       0.0478
     92 N1         13.5450    7.2401    0.8118 N.3     1  RES11      -0.2809
     93 C3         13.6567    7.6846    2.1945 C.3     1  RES11       0.0256
     94 H3A        14.0195    6.9412    2.7374 H       1  RES11       0.0476
     95 H3B        12.7484    7.8850    2.5345 H       1  RES11       0.0476
     96 C2         14.5472    8.9328    2.4076 C.ar    1  RES11      -0.0327
     97 C1         14.2579    9.7700    3.4808 C.ar    1  RES11      -0.0529
     98 H1         13.4892    9.6152    4.0186 H       1  RES11       0.0624
     99 C7         12.6850    8.1159    0.0000 C.3     1  RES11       0.0531
    100 H7A        13.2381    8.6943   -0.5835 H       1  RES11       0.0595
    101 C6         21.9019   12.0102    0.3019 C.3     1  RES11      -0.0515
    102 H6A        22.7087   11.9061    0.8651 H       1  RES11       0.0266
    103 H6B        21.9501   11.3328   -0.4211 H       1  RES11       0.0266
    104 C5         20.6512   11.7412    1.1594 C.3     1  RES11      -0.0358
    105 H5A        20.6512   10.8102    1.4918 H       1  RES11       0.0281
    106 H5B        20.6258   12.3552    1.9357 H       1  RES11       0.0281
    107 C4         19.4512   11.9797    0.2537 C.3     1  RES11       0.0275
    108 H4         19.5045   11.3556   -0.5226 H       1  RES11       0.0478
    109 N1         18.1299   11.8732    0.8600 N.3     1  RES11      -0.2809
    110 C3         17.6854   10.4905    0.9717 C.3     1  RES11       0.0256
    111 H3A        18.4288    9.9476    1.3345 H       1  RES11       0.0476
    112 H3B        17.4850   10.1505    0.0634 H       1  RES11       0.0476
    113 C2         16.4372   10.2774    1.8622 C.ar    1  RES11      -0.0327
    114 C1         15.6000    9.2042    1.5729 C.ar    1  RES11      -0.0529
    115 H1         15.7548    8.6664    0.8042 H       1  RES11       0.0624
    116 C7         17.2541   12.6850    0.0000 C.3     1  RES11       0.0531
    117 H7A        16.6757   13.2685    0.5531 H       1  RES11       0.0595
    118 C6         21.9019   13.3598   -0.3019 C.3     1  RES11      -0.0515
    119 H6A        22.7087   13.4639   -0.8651 H       1  RES11       0.0266
    120 H6B        21.9501   14.0372    0.4211 H       1  RES11       0.0266
    121 C5         20.6512   13.6288   -1.1594 C.3     1  RES11      -0.0358
    122 H5A        20.6512   14.5598   -1.4918 H       1  RES11       0.0281
    123 H5B        20.6258   13.0148   -1.9357 H       1  RES11       0.0281
    124 C4         19.4512   13.3903   -0.2537 C.3     1  RES11       0.0275
    125 H4         19.5045   14.0144    0.5226 H       1  RES11       0.0478
    126 N1         18.1299   13.4968   -0.8600 N.3     1  RES11      -0.2809
    127 C3         17.6854   14.8795   -0.9717 C.3     1  RES11       0.0256
    128 H3A        18.4288   15.4224   -1.3345 H       1  RES11       0.0476
    129 H3B        17.4850   15.2195   -0.0634 H       1  RES11       0.0476
    130 C2         16.4372   15.0926   -1.8622 C.ar    1  RES11      -0.0327
    131 C1         15.6000   16.1658   -1.5729 C.ar    1  RES11      -0.0529
    132 H1         15.7548   16.7036   -0.8042 H       1  RES11       0.0624
    133 H7A        16.6757   12.1015   -0.5531 H       1  RES11       0.0595
    134 C6          3.4681   12.0102   -0.3019 C.3     1  RES11      -0.0515
    135 H6A         2.6613   11.9061   -0.8651 H       1  RES11       0.0266
    136 H6B         3.4199   11.3328    0.4211 H       1  RES11       0.0266
    137 C5          4.7188   11.7412   -1.1594 C.3     1  RES11      -0.0358
    138 H5A         4.7188   10.8102   -1.4918 H       1  RES11       0.0281
    139 H5B         4.7442   12.3552   -1.9357 H       1  RES11       0.0281
    140 C4          5.9188   11.9797   -0.2537 C.3     1  RES11       0.0275
    141 H4          5.8655   11.3556    0.5226 H       1  RES11       0.0478
    142 N1          7.2401   11.8732   -0.8600 N.3     1  RES11      -0.2809
    143 C3          7.6846   10.4905   -0.9717 C.3     1  RES11       0.0256
    144 H3A         6.9412    9.9476   -1.3345 H       1  RES11       0.0476
    145 H3B         7.8850   10.1505   -0.0634 H       1  RES11       0.0476
    146 C2          8.9328   10.2774   -1.8622 C.ar    1  RES11      -0.0327
    147 C1          9.7700    9.2042   -1.5729 C.ar    1  RES11      -0.0529
    148 H1          9.6152    8.6664   -0.8042 H       1  RES11       0.0624
    149 H7A         8.6943   13.2685   -0.5531 H       1  RES11       0.0595
    150 C6         12.0102   12.3831   -9.2169 C.3     1  RES11      -0.0515
    151 H6A        11.9061   11.8199  -10.0237 H       1  RES11       0.0266
    152 H6B        11.3328   13.1061   -9.2651 H       1  RES11       0.0266
    153 C5         11.7412   11.5256   -7.9662 C.3     1  RES11      -0.0358
    154 H5A        10.8102   11.1932   -7.9662 H       1  RES11       0.0281
    155 H5B        12.3552   10.7493   -7.9408 H       1  RES11       0.0281
    156 C4         11.9797   12.4313   -6.7662 C.3     1  RES11       0.0275
    157 H4         11.3556   13.2076   -6.8195 H       1  RES11       0.0478
    158 N1         11.8732   11.8250   -5.4449 N.3     1  RES11      -0.2809
    159 C3         10.4905   11.7133   -5.0004 C.3     1  RES11       0.0256
    160 H3A         9.9476   11.3505   -5.7438 H       1  RES11       0.0476
    161 H3B        10.1505   12.6216   -4.8000 H       1  RES11       0.0476
    162 C2         10.2774   10.8228   -3.7522 C.ar    1  RES11      -0.0327
    163 C1          9.2042   11.1121   -2.9150 C.ar    1  RES11      -0.0529
    164 H1          8.6664   11.8808   -3.0698 H       1  RES11       0.0624
    165 C7         12.6850   12.6850   -4.5691 C.3     1  RES11       0.0531
    166 H7A        13.2685   12.1319   -3.9907 H       1  RES11       0.0595
    167 C6         13.3598   12.9869   -9.2169 C.3     1  RES11      -0.0515
    168 H6A        13.4639   13.5501  -10.0237 H       1  RES11       0.0266
    169 H6B        14.0372   12.2639   -9.2651 H       1  RES11       0.0266
    170 C5         13.6288   13.8444   -7.9662 C.3     1  RES11      -0.0358
    171 H5A        14.5598   14.1768   -7.9662 H       1  RES11       0.0281
    172 H5B        13.0148   14.6207   -7.9408 H       1  RES11       0.0281
    173 C4         13.3903   12.9387   -6.7662 C.3     1  RES11       0.0275
    174 H4         14.0144   12.1624   -6.8195 H       1  RES11       0.0478
    175 N1         13.4968   13.5450   -5.4449 N.3     1  RES11      -0.2809
    176 C3         14.8795   13.6567   -5.0004 C.3     1  RES11       0.0256
    177 H3A        15.4224   14.0195   -5.7438 H       1  RES11       0.0476
    178 H3B        15.2195   12.7484   -4.8000 H       1  RES11       0.0476
    179 C2         15.0926   14.5472   -3.7522 C.ar    1  RES11      -0.0327
    180 C1         16.1658   14.2579   -2.9150 C.ar    1  RES11      -0.0529
    181 H1         16.7036   13.4892   -3.0698 H       1  RES11       0.0624
    182 H7A        12.1015   13.2381   -3.9907 H       1  RES11       0.0595
    183 C6         12.3831    3.4681   -0.6748 C.3     1  RES11      -0.0515
    184 H6A        11.8199    2.6613   -0.7789 H       1  RES11       0.0266
    185 H6B        13.1061    3.4199   -1.3522 H       1  RES11       0.0266
    186 C5         11.5256    4.7188   -0.9438 C.3     1  RES11      -0.0358
    187 H5A        11.1932    4.7188   -1.8748 H       1  RES11       0.0281
    188 H5B        10.7493    4.7442   -0.3298 H       1  RES11       0.0281
    189 C4         12.4313    5.9188   -0.7053 C.3     1  RES11       0.0275
    190 H4         13.2076    5.8655   -1.3294 H       1  RES11       0.0478
    191 N1         11.8250    7.2401   -0.8118 N.3     1  RES11      -0.2809
    192 C3         11.7133    7.6846   -2.1945 C.3     1  RES11       0.0256
    193 H3A        11.3505    6.9412   -2.7374 H       1  RES11       0.0476
    194 H3B        12.6216    7.8850   -2.5345 H       1  RES11       0.0476
    195 C2         10.8228    8.9328   -2.4076 C.ar    1  RES11      -0.0327
    196 C1         11.1121    9.7700   -3.4808 C.ar    1  RES11      -0.0529
    197 H1         11.8808    9.6152   -4.0186 H       1  RES11       0.0624
    198 H7A        12.1319    8.6943    0.5835 H       1  RES11       0.0595
@<TRIPOS>BOND
     1     1     2    1
     2     1     3    1
     3     1     4    1
     4     1    18    1
     5     4     5    1
     6     4     6    1
     7     4     7    1
     8     7     8    1
     9     7     9    1
    10     7    24    1
    11     9    10    1
    12     9    16    1
    13    10    11    1
    14    10    12    1
    15    10    13    1
    16    13    14   ar
    17    13    47   ar
    18    14    15    1
    19    14    63   ar
    20    16    17    1
    21    16    26    1
    22    16    33    1
    23    18    19    1
    24    18    20    1
    25    18    21    1
    26    21    22    1
    27    21    23    1
    28    21    24    1
    29    24    25    1
    30    24    26    1
    31    26    27    1
    32    27    28    1
    33    27    29    1
    34    27    30    1
    35    30    31   ar
    36    30    97   ar
    37    31    32    1
    38    31   113   ar
    39    34    35    1
    40    34    36    1
    41    34    37    1
    42    34    68    1
    43    37    38    1
    44    37    39    1
    45    37    40    1
    46    40    41    1
    47    40    42    1
    48    40    74    1
    49    42    43    1
    50    42    49    1
    51    43    44    1
    52    43    45    1
    53    43    46    1
    54    46    47   ar
    55    46    64   ar
    56    47    48    1
    57    49    50    1
    58    49    76    1
    59    49    83    1
    60    51    52    1
    61    51    53    1
    62    51    54    1
    63    51   134    1
    64    54    55    1
    65    54    56    1
    66    54    57    1
    67    57    58    1
    68    57    59    1
    69    57   140    1
    70    59    60    1
    71    59    66    1
    72    60    61    1
    73    60    62    1
    74    60    63    1
    75    63    64   ar
    76    64    65    1
    77    66    67    1
    78    66   142    1
    79    66   149    1
    80    68    69    1
    81    68    70    1
    82    68    71    1
    83    71    72    1
    84    71    73    1
    85    71    74    1
    86    74    75    1
    87    74    76    1
    88    76    77    1
    89    77    78    1
    90    77    79    1
    91    77    80    1
    92    80    81   ar
    93    80   131   ar
    94    81    82    1
    95    81   179   ar
    96    84    85    1
    97    84    86    1
    98    84    87    1
    99    84   183    1
   100    87    88    1
   101    87    89    1
   102    87    90    1
   103    90    91    1
   104    90    92    1
   105    90   189    1
   106    92    93    1
   107    92    99    1
   108    93    94    1
   109    93    95    1
   110    93    96    1
   111    96    97   ar
   112    96   114   ar
   113    97    98    1
   114    99   100    1
   115    99   191    1
   116    99   198    1
   117   101   102    1
   118   101   103    1
   119   101   104    1
   120   101   118    1
   121   104   105    1
   122   104   106    1
   123   104   107    1
   124   107   108    1
   125   107   109    1
   126   107   124    1
   127   109   110    1
   128   109   116    1
   129   110   111    1
   130   110   112    1
   131   110   113    1
   132   113   114   ar
   133   114   115    1
   134   116   117    1
   135   116   126    1
   136   116   133    1
   137   118   119    1
   138   118   120    1
   139   118   121    1
   140   121   122    1
   141   121   123    1
   142   121   124    1
   143   124   125    1
   144   124   126    1
   145   126   127    1
   146   127   128    1
   147   127   129    1
   148   127   130    1
   149   130   131   ar
   150   130   180   ar
   151   131   132    1
   152   134   135    1
   153   134   136    1
   154   134   137    1
   155   137   138    1
   156   137   139    1
   157   137   140    1
   158   140   141    1
   159   140   142    1
   160   142   143    1
   161   143   144    1
   162   143   145    1
   163   143   146    1
   164   146   147   ar
   165   146   163   ar
   166   147   148    1
   167   147   195   ar
   168   150   151    1
   169   150   152    1
   170   150   153    1
   171   150   167    1
   172   153   154    1
   173   153   155    1
   174   153   156    1
   175   156   157    1
   176   156   158    1
   177   156   173    1
   178   158   159    1
   179   158   165    1
   180   159   160    1
   181   159   161    1
   182   159   162    1
   183   162   163   ar
   184   162   196   ar
   185   163   164    1
   186   165   166    1
   187   165   175    1
   188   165   182    1
   189   167   168    1
   190   167   169    1
   191   167   170    1
   192   170   171    1
   193   170   172    1
   194   170   173    1
   195   173   174    1
   196   173   175    1
   197   175   176    1
   198   176   177    1
   199   176   178    1
   200   176   179    1
   201   179   180   ar
   202   180   181    1
   203   183   184    1
   204   183   185    1
   205   183   186    1
   206   186   187    1
   207   186   188    1
   208   186   189    1
   209   189   190    1
   210   189   191    1
   211   191   192    1
   212   192   193    1
   213   192   194    1
   214   192   195    1
   215   195   196   ar
   216   196   197    1
