@<TRIPOS>MOLECULE
*****
 123 130 0 0 0
SMALL
GASTEIGER

@<TRIPOS>ATOM
      1 C11         5.2287    1.0758   12.7001 C.3     1  RES11       0.1979
      2 H11         4.9276    0.1398   12.8846 H       1  RES11       0.0943
      3 C21         4.3655    1.6706   11.6873 C.3     1  RES11       0.2248
      4 O21         4.4284    0.9265   10.4762 O.3     1  RES11      -0.2159
      5 C31         4.7618    3.1539   11.4317 C.3     1  RES11       0.1620
      6 H31         5.7051    3.1895   11.0952 H       1  RES11       0.0688
      7 O31         3.8948    3.6847   10.4416 O.3     1  RES11      -0.2250
      8 C41         4.6818    3.8506   12.7098 C.3     1  RES11       0.1223
      9 H41         3.7291    3.9122   13.0043 H       1  RES11       0.0652
     10 C51         5.4974    3.2108   13.7711 C.3     1  RES11       0.1168
     11 H51         6.4635    3.2866   13.5188 H       1  RES11       0.0648
     12 C61         5.3144    3.7937   15.1528 C.3     1  RES11       0.1116
     13 H61A        5.9966    3.4122   15.7579 H       1  RES11       0.0618
     14 H61B        5.4612    4.7724   15.1107 H       1  RES11       0.0618
     15 O61         4.0625    3.5473   15.6660 O.3     1  RES11      -0.2320
     16 O51         5.1658    1.8246   13.8883 O.3     1  RES11      -0.3399
     17 O41         5.2230    5.1752   12.5050 O.3     1  RES11      -0.3399
     18 C12         4.4208    6.2984   12.7810 C.3     1  RES11       0.1919
     19 H12         3.5061    5.9903   13.0399 H       1  RES11       0.0939
     20 C22         4.3274    7.1349   11.5547 C.3     1  RES11       0.1756
     21 H22         3.7767    7.9476   11.7456 H       1  RES11       0.0708
     22 O22         3.7424    6.4074   10.4675 O.3     1  RES11      -0.2230
     23 C32         5.7356    7.5614   11.1502 C.3     1  RES11       0.1560
     24 H32         6.3015    6.7534   10.9884 H       1  RES11       0.0684
     25 O32         5.6898    8.3742    9.9685 O.3     1  RES11      -0.2254
     26 C42         6.2958    8.3552   12.3054 C.3     1  RES11       0.1219
     27 H42         5.7660    9.1964   12.4186 H       1  RES11       0.0652
     28 C52         6.2748    7.5804   13.5738 C.3     1  RES11       0.1167
     29 H52         6.9246    6.8244   13.4961 H       1  RES11       0.0648
     30 C62         6.6178    8.3860   14.7613 C.3     1  RES11       0.1116
     31 H62A        6.5168    7.8339   15.5767 H       1  RES11       0.0618
     32 H62B        7.5629    8.6775   14.7030 H       1  RES11       0.0618
     33 O62         5.7584    9.5424   14.8486 O.3     1  RES11      -0.2320
     34 O52         4.9734    7.0472   13.8284 O.3     1  RES11      -0.3403
     35 O42         7.6315    8.6822   11.9439 O.3     1  RES11      -0.3399
     36 C13         8.1079   10.0045   12.1403 C.3     1  RES11       0.1919
     37 H13         7.3381   10.5779   12.4219 H       1  RES11       0.0939
     38 C23         8.5995   10.4997   10.8137 C.3     1  RES11       0.1756
     39 H23         8.8834   11.4523   10.9302 H       1  RES11       0.0708
     40 O23         7.5648   10.4784    9.8495 O.3     1  RES11      -0.2230
     41 C33         9.7905    9.7272   10.3963 C.3     1  RES11       0.1560
     42 H33         9.5332    8.7746   10.2313 H       1  RES11       0.0684
     43 O33        10.3507   10.2841    9.2117 O.3     1  RES11      -0.2254
     44 C43        10.8499    9.7912   11.5223 C.3     1  RES11       0.1219
     45 H43        11.1510   10.7390   11.6259 H       1  RES11       0.0652
     46 C53        10.2535    9.3433   12.7940 C.3     1  RES11       0.1167
     47 H53        10.0134    8.3765   12.7098 H       1  RES11       0.0648
     48 C63        11.1700    9.5116   13.9620 C.3     1  RES11       0.1116
     49 H63A       10.6727    9.3576   14.8033 H       1  RES11       0.0618
     50 H63B       11.9056    8.8505   13.9135 H       1  RES11       0.0618
     51 O63        11.7112   10.8433   13.9523 O.3     1  RES11      -0.2320
     52 O53         9.0854   10.0755   13.1208 O.3     1  RES11      -0.3403
     53 O43        11.9361    9.0187   11.1654 O.3     1  RES11      -0.3399
     54 C14        13.1765    9.6158   11.1729 C.3     1  RES11       0.1919
     55 H14        13.0546   10.5992   11.2991 H       1  RES11       0.0939
     56 C24        13.8358    9.3741    9.7912 C.3     1  RES11       0.1756
     57 H24        14.7238    9.8291    9.7556 H       1  RES11       0.0708
     58 O24        13.0165    9.8552    8.7632 O.3     1  RES11      -0.2230
     59 C34        14.0245    7.8694    9.6392 C.3     1  RES11       0.1560
     60 H34        13.1308    7.4192    9.6489 H       1  RES11       0.0684
     61 O34        14.6933    7.5732    8.4112 O.3     1  RES11      -0.2254
     62 C44        14.8496    7.3671   10.7846 C.3     1  RES11       0.1219
     63 H44        15.7775    7.7344   10.7231 H       1  RES11       0.0652
     64 C54        14.2627    7.6846   12.1048 C.3     1  RES11       0.1167
     65 H54        13.4052    7.1846   12.2245 H       1  RES11       0.0648
     66 O54        14.0111    9.1372   12.1957 O.3     1  RES11      -0.3403
     67 C64        15.1621    7.4145   13.2534 C.3     1  RES11       0.1116
     68 H64A       14.7238    7.7178   14.0882 H       1  RES11       0.0618
     69 H64B       15.3088    6.4382   13.3278 H       1  RES11       0.0618
     70 O64        16.4273    8.0685   13.1263 O.3     1  RES11      -0.2320
     71 O44        14.8820    5.9311   10.6519 O.3     1  RES11      -0.3399
     72 C15        16.0900    5.2842   10.6810 C.3     1  RES11       0.1919
     73 H15        16.8256    5.9619   10.6519 H       1  RES11       0.0939
     74 C25        16.1720    4.4169    9.4482 C.3     1  RES11       0.1756
     75 H25        17.0580    3.9549    9.4709 H       1  RES11       0.0708
     76 O25        16.1243    5.1705    8.2543 O.3     1  RES11      -0.2230
     77 C35        15.1373    3.3743    9.5130 C.3     1  RES11       0.1560
     78 H35        14.2322    3.8032    9.5000 H       1  RES11       0.0684
     79 O35        15.2745    2.5023    8.3546 O.3     1  RES11      -0.2254
     80 C45        15.2916    2.5686   10.7684 C.3     1  RES11       0.1219
     81 H45        16.1529    2.0592   10.7522 H       1  RES11       0.0652
     82 C55        15.2383    3.4904   11.9883 C.3     1  RES11       0.1167
     83 H55        14.3332    3.9146   12.0206 H       1  RES11       0.0648
     84 O55        16.2196    4.5283   11.8297 O.3     1  RES11      -0.3403
     85 C65        15.4917    2.8269   13.2890 C.3     1  RES11       0.1116
     86 H65A       15.4955    3.5046   14.0106 H       1  RES11       0.0618
     87 H65B       14.7695    2.1777   13.4767 H       1  RES11       0.0618
     88 O65        16.6731    2.1919   13.2631 O.3     1  RES11      -0.2320
     89 O45        14.1922    1.6777   10.8830 O.3     1  RES11      -0.3399
     90 C16        14.5104    0.2844   10.9755 C.3     1  RES11       0.1919
     91 H16        15.4993    0.1706   10.8881 H       1  RES11       0.0939
     92 C26        13.8301   -0.4526    9.8527 C.3     1  RES11       0.1756
     93 H26        14.0397   -1.4265    9.9239 H       1  RES11       0.0708
     94 O26        14.2912    0.0284    8.6167 O.3     1  RES11      -0.2230
     95 C36        12.3229   -0.2464    9.9918 C.3     1  RES11       0.1560
     96 H36        12.0904    0.7227    9.9239 H       1  RES11       0.0684
     97 O36        11.6731   -0.9976    8.9584 O.3     1  RES11      -0.2254
     98 C46        11.9246   -0.7962   11.3314 C.3     1  RES11       0.1219
     99 H46        12.0809   -1.7843   11.3508 H       1  RES11       0.0652
    100 C56        12.6735   -0.1445   12.4445 C.3     1  RES11       0.1167
    101 H56        12.4029    0.8175   12.4866 H       1  RES11       0.0648
    102 O56        14.0988   -0.2109   12.2190 O.3     1  RES11      -0.3403
    103 C66        12.4258   -0.7678   13.7711 C.3     1  RES11       0.1116
    104 H66A       12.9593   -0.2938   14.4571 H       1  RES11       0.0618
    105 H66B       11.4692   -0.6706   14.0041 H       1  RES11       0.0618
    106 O66        12.7802   -2.1729   13.7731 O.3     1  RES11      -0.2320
    107 O46        10.5279   -0.5237   11.5120 O.3     1  RES11      -0.3399
    108 C17         9.6628   -1.5995   11.7618 C.3     1  RES11       0.1919
    109 H17        10.1849   -2.4525   11.7197 H       1  RES11       0.0939
    110 C27         8.6090   -1.6184   10.6778 C.3     1  RES11       0.1756
    111 H27         7.9860   -2.3767   10.8720 H       1  RES11       0.0708
    112 O27         9.1502   -1.8246    9.4233 O.3     1  RES11      -0.2230
    113 C37         7.8087   -0.3128   10.7911 C.3     1  RES11       0.1561
    114 H37         8.4242    0.4597   10.6390 H       1  RES11       0.0684
    115 O37         6.8064   -0.3152    9.7812 O.3     1  RES11      -0.2254
    116 C47         7.2104   -0.1896   12.1209 C.3     1  RES11       0.1227
    117 H47         6.5378   -0.9170   12.2471 H       1  RES11       0.0652
    118 C57         8.2756   -0.3033   13.1984 C.3     1  RES11       0.1285
    119 H57         8.8625    0.5047   13.1661 H       1  RES11       0.0656
    120 O57         9.0892   -1.4810   13.0315 O.3     1  RES11      -0.3395
    121 C67         7.7058   -0.4336   14.5607 C.3     1  RES11       0.2071
    122 O67         6.8789   -1.5876   14.6655 O.3     1  RES11      -0.2181
    123 O47         6.5683    1.0521   12.2080 O.3     1  RES11      -0.3395
@<TRIPOS>BOND
     1     1     2    1
     2     1     3    1
     3     1    16    1
     4     1   123    1
     5     3     4    1
     6     3     5    1
     7     5     6    1
     8     5     7    1
     9     5     8    1
    10     8     9    1
    11     8    10    1
    12     8    17    1
    13    10    11    1
    14    10    12    1
    15    10    16    1
    16    12    13    1
    17    12    14    1
    18    12    15    1
    19    17    18    1
    20    18    19    1
    21    18    20    1
    22    18    34    1
    23    20    21    1
    24    20    22    1
    25    20    23    1
    26    23    24    1
    27    23    25    1
    28    23    26    1
    29    26    27    1
    30    26    28    1
    31    26    35    1
    32    28    29    1
    33    28    30    1
    34    28    34    1
    35    30    31    1
    36    30    32    1
    37    30    33    1
    38    35    36    1
    39    36    37    1
    40    36    38    1
    41    36    52    1
    42    38    39    1
    43    38    40    1
    44    38    41    1
    45    41    42    1
    46    41    43    1
    47    41    44    1
    48    44    45    1
    49    44    46    1
    50    44    53    1
    51    46    47    1
    52    46    48    1
    53    46    52    1
    54    48    49    1
    55    48    50    1
    56    48    51    1
    57    53    54    1
    58    54    55    1
    59    54    56    1
    60    54    66    1
    61    56    57    1
    62    56    58    1
    63    56    59    1
    64    59    60    1
    65    59    61    1
    66    59    62    1
    67    62    63    1
    68    62    64    1
    69    62    71    1
    70    64    65    1
    71    64    66    1
    72    64    67    1
    73    67    68    1
    74    67    69    1
    75    67    70    1
    76    71    72    1
    77    72    73    1
    78    72    74    1
    79    72    84    1
    80    74    75    1
    81    74    76    1
    82    74    77    1
    83    77    78    1
    84    77    79    1
    85    77    80    1
    86    80    81    1
    87    80    82    1
    88    80    89    1
    89    82    83    1
    90    82    84    1
    91    82    85    1
    92    85    86    1
    93    85    87    1
    94    85    88    1
    95    89    90    1
    96    90    91    1
    97    90    92    1
    98    90   102    1
    99    92    93    1
   100    92    94    1
   101    92    95    1
   102    95    96    1
   103    95    97    1
   104    95    98    1
   105    98    99    1
   106    98   100    1
   107    98   107    1
   108   100   101    1
   109   100   102    1
   110   100   103    1
   111   103   104    1
   112   103   105    1
   113   103   106    1
   114   107   108    1
   115   108   109    1
   116   108   110    1
   117   108   120    1
   118   110   111    1
   119   110   112    1
   120   110   113    1
   121   113   114    1
   122   113   115    1
   123   113   116    1
   124   116   117    1
   125   116   118    1
   126   116   123    1
   127   118   119    1
   128   118   120    1
   129   118   121    1
   130   121   122    1
