@<TRIPOS>MOLECULE
*****
 99 108 0 0 0
SMALL
GASTEIGER

@<TRIPOS>ATOM
      1 O1A         6.4646   -7.5616    0.7567 O.3     2  RES22      -0.4914
      2 O2A         6.3981   -6.0452    2.8607 O.3     2  RES22      -0.4526
      3 O3A         2.9051   -0.0326    3.7608 O.3     2  RES22      -0.4914
      4 O4A         0.7976    0.2684    2.0602 O.3     2  RES22      -0.4526
      5 O5A        -0.3302   -4.4962   -2.9806 O.3     2  RES22      -0.4914
      6 O6A         1.3999   -6.4613   -3.6200 O.3     2  RES22      -0.4526
      7 O7A         5.6768   -4.3556    4.3965 O.3     2  RES22      -0.4563
      8 O8A         1.6390   -7.9641   -1.8948 O.3     2  RES22      -0.4563
      9 O9A        -1.0083   -1.0935    2.5780 O.3     2  RES22      -0.4563
     10 C1A         5.8030   -3.4759    0.2383 C.ar    2  RES22      -0.0359
     11 C2A         5.7102   -4.3090   -0.8743 C.ar    2  RES22      -0.0359
     12 C3A         5.9463   -5.6795   -0.7094 C.ar    2  RES22      -0.0125
     13 H3A         5.9301   -6.2460   -1.4720 H       2  RES22       0.0658
     14 C4A         6.2022   -6.2300    0.5289 C.ar    2  RES22       0.1619
     15 C5A         6.2036   -5.4013    1.6508 C.ar    2  RES22       0.1664
     16 C6A         6.0383   -4.0507    1.4939 C.ar    2  RES22      -0.0124
     17 H6A         6.0847   -3.4878    2.2574 H       2  RES22       0.0658
     18 C7A         5.6959   -1.9654    0.1753 C.3     2  RES22      -0.0016
     19 H7A1        5.8583   -1.6757   -0.7583 H       2  RES22       0.0362
     20 H7A2        6.4113   -1.5748    0.7370 H       2  RES22       0.0362
     21 C8A         6.8154   -8.3493   -0.3760 C.3     2  RES22       0.0790
     22 H8A1        6.0306   -8.4614   -0.9503 H       2  RES22       0.0660
     23 H8A2        7.1311   -9.2266   -0.0776 H       2  RES22       0.0660
     24 H8A3        7.5265   -7.9009   -0.8785 H       2  RES22       0.0660
     25 C9A         3.2756   -1.2103   -0.2286 C.ar    2  RES22      -0.0359
     26 C10A        4.3603   -1.4043    0.6313 C.ar    2  RES22      -0.0359
     27 C11A        4.2348   -1.0374    1.9729 C.ar    2  RES22      -0.0125
     28 H11A        4.9726   -1.1626    2.5580 H       2  RES22       0.0658
     29 C12A        3.0645   -0.4947    2.4754 C.ar    2  RES22       0.1619
     30 C13A        1.9660   -0.3600    1.6242 C.ar    2  RES22       0.1664
     31 C14A        2.0824   -0.7053    0.2958 C.ar    2  RES22      -0.0124
     32 H14A        1.3329   -0.5961   -0.2793 H       2  RES22       0.0658
     33 C15A        3.3541   -1.4699   -1.7274 C.3     2  RES22      -0.0016
     34 H15A        2.8004   -0.7948   -2.1934 H       2  RES22       0.0362
     35 H15B        4.2909   -1.3405   -2.0208 H       2  RES22       0.0362
     36 C16A        4.0982    0.0866    4.5373 C.3     2  RES22       0.0790
     37 H16A        4.5024   -0.7978    4.6525 H       2  RES22       0.0660
     38 H16B        3.8803    0.4627    5.4166 H       2  RES22       0.0660
     39 H16C        4.7305    0.6762    4.0765 H       2  RES22       0.0660
     40 C17A        3.7764   -3.9024   -2.4310 C.ar    2  RES22      -0.0359
     41 C18A        2.8997   -2.8481   -2.1649 C.ar    2  RES22      -0.0359
     42 C19A        1.5152   -3.0328   -2.3288 C.ar    2  RES22      -0.0125
     43 H19A        0.9236   -2.3163   -2.1294 H       2  RES22       0.0658
     44 C20A        0.9984   -4.2304   -2.7735 C.ar    2  RES22       0.1619
     45 C21A        1.8864   -5.2779   -3.0593 C.ar    2  RES22       0.1664
     46 C22A        3.2345   -5.1145   -2.8759 C.ar    2  RES22      -0.0124
     47 H22A        3.8166   -5.8426   -3.0545 H       2  RES22       0.0658
     48 C23A        5.2882   -3.8247   -2.2471 C.3     2  RES22      -0.0016
     49 H23A        5.7311   -4.3775   -2.9401 H       2  RES22       0.0362
     50 H23B        5.5852   -2.8887   -2.3699 H       2  RES22       0.0362
     51 C24A       -1.2671   -3.4679   -2.6472 C.3     2  RES22       0.0790
     52 H24A       -1.1369   -3.1971   -1.7144 H       2  RES22       0.0660
     53 H24B       -2.1796   -3.8051   -2.7655 H       2  RES22       0.0660
     54 H24C       -1.1268   -2.6959   -3.2329 H       2  RES22       0.0660
     55 C25A        2.4438   -6.1941    4.3120 C.ar    2  RES22      -0.0361
     56 C26A        1.6170   -5.2011    4.8480 C.ar    2  RES22      -0.0393
     57 C27A        2.2041   -4.0154    5.2795 C.ar    2  RES22      -0.0545
     58 H27A        1.6575   -3.3543    5.6881 H       2  RES22       0.0622
     59 C28A        3.5499   -3.7683    5.1341 C.ar    2  RES22      -0.0195
     60 H28A        3.9200   -2.9391    5.4127 H       2  RES22       0.0654
     61 C29A        4.3573   -4.7432    4.5767 C.ar    2  RES22       0.1250
     62 C30A        3.8191   -5.9559    4.2036 C.ar    2  RES22      -0.0160
     63 H30A        4.3885   -6.6375    3.8690 H       2  RES22       0.0657
     64 C31A        1.9216   -7.5177    3.7833 C.3     2  RES22      -0.0018
     65 H31A        1.0377   -7.6992    4.1909 H       2  RES22       0.0362
     66 H31B        2.5366   -8.2390    4.0668 H       2  RES22       0.0362
     67 C32A        0.5926   -7.2570    1.5955 C.ar    2  RES22      -0.0361
     68 C33A        1.7803   -7.5625    2.2714 C.ar    2  RES22      -0.0393
     69 C34A        2.8841   -7.9451    1.4976 C.ar    2  RES22      -0.0545
     70 H34A        3.6975   -8.1619    1.9374 H       2  RES22       0.0622
     71 C35A        2.8335   -8.0201    0.1237 C.ar    2  RES22      -0.0195
     72 H35A        3.6082   -8.2568   -0.3724 H       2  RES22       0.0654
     73 C36A        1.6474   -7.7470   -0.5275 C.ar    2  RES22       0.1250
     74 C37A        0.5321   -7.3842    0.2093 C.ar    2  RES22      -0.0160
     75 H37A       -0.2896   -7.2188   -0.2385 H       2  RES22       0.0657
     76 C38A       -0.6720   -6.7777    2.2985 C.3     2  RES22      -0.0018
     77 H38A       -1.4635   -7.0883    1.7920 H       2  RES22       0.0362
     78 H38B       -0.7128   -7.1772    3.2038 H       2  RES22       0.0362
     79 C39A       -0.4158   -4.5902    3.6088 C.ar    2  RES22      -0.0361
     80 C40A       -0.7202   -5.2640    2.4182 C.ar    2  RES22      -0.0393
     81 C41A       -1.0907   -4.5021    1.3036 C.ar    2  RES22      -0.0545
     82 H41A       -1.3074   -4.9470    0.4926 H       2  RES22       0.0622
     83 C42A       -1.1512   -3.1239    1.3436 C.ar    2  RES22      -0.0195
     84 H42A       -1.3853   -2.6307    0.5663 H       2  RES22       0.0654
     85 C43A       -0.8666   -2.4741    2.5270 C.ar    2  RES22       0.1250
     86 C44A       -0.5299   -3.2019    3.6506 C.ar    2  RES22      -0.0160
     87 H44A       -0.3729   -2.7463    4.4702 H       2  RES22       0.0657
     88 C45A        0.1043   -5.2830    4.8488 C.3     2  RES22      -0.0018
     89 H45A       -0.1835   -6.2311    4.8523 H       2  RES22       0.0362
     90 H45B       -0.2578   -4.8432    5.6590 H       2  RES22       0.0362
     91 C46A        6.6572   -5.2987    4.0288 C.3     2  RES22       0.2331
     92 H46A        6.7751   -5.9316    4.7805 H       2  RES22       0.1166
     93 H46B        7.5161   -4.8224    3.9059 H       2  RES22       0.1166
     94 C47A        0.7098   -7.2799   -2.7070 C.3     2  RES22       0.2331
     95 H47A        0.1506   -7.9305   -3.1980 H       2  RES22       0.1166
     96 H47B        0.1159   -6.7235   -2.1430 H       2  RES22       0.1166
     97 C48A        0.0764   -0.3568    3.1041 C.3     2  RES22       0.2331
     98 H48A        0.6768   -0.9639    3.6053 H       2  RES22       0.1166
     99 H48B       -0.2618    0.3292    3.7313 H       2  RES22       0.1166
@<TRIPOS>BOND
     1     1    14    1
     2     1    21    1
     3     2    15    1
     4     2    91    1
     5     3    29    1
     6     3    36    1
     7     4    30    1
     8     4    97    1
     9     5    44    1
    10     5    51    1
    11     6    45    1
    12     6    94    1
    13     7    61    1
    14     7    91    1
    15     8    73    1
    16     8    94    1
    17     9    85    1
    18     9    97    1
    19    10    11   ar
    20    10    16   ar
    21    10    18    1
    22    11    12   ar
    23    11    48    1
    24    12    13    1
    25    12    14   ar
    26    14    15   ar
    27    15    16   ar
    28    16    17    1
    29    18    19    1
    30    18    20    1
    31    18    26    1
    32    21    22    1
    33    21    23    1
    34    21    24    1
    35    25    26   ar
    36    25    31   ar
    37    25    33    1
    38    26    27   ar
    39    27    28    1
    40    27    29   ar
    41    29    30   ar
    42    30    31   ar
    43    31    32    1
    44    33    34    1
    45    33    35    1
    46    33    41    1
    47    36    37    1
    48    36    38    1
    49    36    39    1
    50    40    41   ar
    51    40    46   ar
    52    40    48    1
    53    41    42   ar
    54    42    43    1
    55    42    44   ar
    56    44    45   ar
    57    45    46   ar
    58    46    47    1
    59    48    49    1
    60    48    50    1
    61    51    52    1
    62    51    53    1
    63    51    54    1
    64    55    56   ar
    65    55    62   ar
    66    55    64    1
    67    56    57   ar
    68    56    88    1
    69    57    58    1
    70    57    59   ar
    71    59    60    1
    72    59    61   ar
    73    61    62   ar
    74    62    63    1
    75    64    65    1
    76    64    66    1
    77    64    68    1
    78    67    68   ar
    79    67    74   ar
    80    67    76    1
    81    68    69   ar
    82    69    70    1
    83    69    71   ar
    84    71    72    1
    85    71    73   ar
    86    73    74   ar
    87    74    75    1
    88    76    77    1
    89    76    78    1
    90    76    80    1
    91    79    80   ar
    92    79    86   ar
    93    79    88    1
    94    80    81   ar
    95    81    82    1
    96    81    83   ar
    97    83    84    1
    98    83    85   ar
    99    85    86   ar
   100    86    87    1
   101    88    89    1
   102    88    90    1
   103    91    92    1
   104    91    93    1
   105    94    95    1
   106    94    96    1
   107    97    98    1
   108    97    99    1
