@<TRIPOS>MOLECULE
*****
 87 96 0 0 0
SMALL
GASTEIGER

@<TRIPOS>ATOM
      1 Br1         2.5512    8.7500    2.3959 Br      2  RES22      -0.0465
      2 Br2        -0.0298    1.7101    6.9150 Br      2  RES22      -0.0465
      3 Br3         3.8696    1.2426   -1.5126 Br      2  RES22      -0.0465
      4 O1          3.3377    7.2790   -0.1414 O.3     2  RES22      -0.4551
      5 O2         -0.3019    4.6682    6.8349 O.3     2  RES22      -0.4551
      6 O3          2.9142   -0.2483    0.8012 O.3     2  RES22      -0.4551
      7 O4          5.4373    6.3610   -0.2232 O.3     2  RES22      -0.4563
      8 O5          1.5539    5.8266    7.5576 O.3     2  RES22      -0.4563
      9 O6          2.3544   -0.7892    3.0323 O.3     2  RES22      -0.4563
     10 C1          2.1352    6.8067    0.3348 C.ar    2  RES22       0.1389
     11 C2          1.3782    5.8519   -0.3260 C.ar    2  RES22      -0.0149
     12 H2          1.6739    5.5340   -1.1714 H       2  RES22       0.0657
     13 C3          0.1942    5.3394    0.2089 C.ar    2  RES22      -0.0360
     14 C4         -0.2842    5.8513    1.4244 C.ar    2  RES22      -0.0383
     15 C5          0.4455    6.8763    2.0444 C.ar    2  RES22      -0.0405
     16 H5          0.1147    7.2576    2.8489 H       2  RES22       0.0633
     17 C6          1.6289    7.3455    1.5162 C.ar    2  RES22       0.0599
     18 C7         -0.5492    4.1502    5.5795 C.ar    2  RES22       0.1389
     19 C8         -0.9518    4.9217    4.4999 C.ar    2  RES22      -0.0149
     20 H8         -1.0692    5.8574    4.6203 H       2  RES22       0.0657
     21 C9         -1.1878    4.3622    3.2390 C.ar    2  RES22      -0.0360
     22 C10        -1.0627    2.9674    3.0732 C.ar    2  RES22      -0.0383
     23 C11        -0.7220    2.1959    4.1816 C.ar    2  RES22      -0.0405
     24 H11        -0.6641    1.2508    4.0888 H       2  RES22       0.0633
     25 C12        -0.4636    2.7719    5.4204 C.ar    2  RES22       0.0599
     26 C13         1.9708    0.7236    0.5315 C.ar    2  RES22       0.1389
     27 C14         0.7915    0.9457    1.2244 C.ar    2  RES22      -0.0149
     28 H14         0.5434    0.3539    1.9239 H       2  RES22       0.0657
     29 C15        -0.0495    2.0382    0.9073 C.ar    2  RES22      -0.0360
     30 C16         0.3070    2.8918   -0.1437 C.ar    2  RES22      -0.0383
     31 C17         1.4685    2.6193   -0.8586 C.ar    2  RES22      -0.0405
     32 H17         1.7009    3.1727   -1.5957 H       2  RES22       0.0633
     33 C18         2.2862    1.5693   -0.5205 C.ar    2  RES22       0.0599
     34 C19         5.6232    5.3290    0.7017 C.ar    2  RES22       0.1250
     35 C20         5.8103    5.6307    2.0378 C.ar    2  RES22      -0.0160
     36 H20         5.7638    6.5377    2.3162 H       2  RES22       0.0657
     37 C21         6.0667    4.6420    2.9936 C.ar    2  RES22      -0.0361
     38 C22         6.1368    3.3030    2.5737 C.ar    2  RES22      -0.0393
     39 C23         5.9604    3.0178    1.2101 C.ar    2  RES22      -0.0545
     40 H23         6.0147    2.1172    0.9150 H       2  RES22       0.0622
     41 C24         5.7076    4.0178    0.2785 C.ar    2  RES22      -0.0195
     42 H24         5.5940    3.8012   -0.6398 H       2  RES22       0.0654
     43 C25         2.6424    5.6054    6.6978 C.ar    2  RES22       0.1250
     44 C26         3.3746    4.4504    6.8702 C.ar    2  RES22      -0.0160
     45 H26         3.0828    3.8012    7.4990 H       2  RES22       0.0657
     46 C27         4.5411    4.2194    6.1309 C.ar    2  RES22      -0.0361
     47 C28         4.9767    5.2057    5.2303 C.ar    2  RES22      -0.0393
     48 C29         4.2093    6.3497    5.0778 C.ar    2  RES22      -0.0545
     49 H29         4.4939    7.0105    4.4579 H       2  RES22       0.0622
     50 C30         3.0390    6.5648    5.7961 C.ar    2  RES22      -0.0195
     51 H30         2.5261    7.3553    5.6679 H       2  RES22       0.0654
     52 C31         3.1893    0.0766    3.7274 C.ar    2  RES22       0.1250
     53 C32         4.3635    0.6379    3.2655 C.ar    2  RES22      -0.0160
     54 H32         4.6838    0.4210    2.3980 H       2  RES22       0.0657
     55 C33         5.0930    1.5354    4.0799 C.ar    2  RES22      -0.0361
     56 C34         4.6002    1.8564    5.3441 C.ar    2  RES22      -0.0393
     57 C35         3.4080    1.2496    5.7685 C.ar    2  RES22      -0.0545
     58 H35         3.0738    1.4521    6.6348 H       2  RES22       0.0622
     59 C36         2.7101    0.3807    4.9839 C.ar    2  RES22      -0.0195
     60 H36         1.9039   -0.0092    5.2988 H       2  RES22       0.0654
     61 C37        -1.5305    5.3183    2.1129 C.3     2  RES22      -0.0017
     62 H37A       -2.0525    6.0770    2.4765 H       2  RES22       0.0362
     63 H37B       -2.0950    4.8506    1.4476 H       2  RES22       0.0362
     64 C38        -1.2958    2.2398    1.7571 C.3     2  RES22      -0.0017
     65 H38A       -1.9583    2.7517    1.2277 H       2  RES22       0.0362
     66 H38B       -1.6893    1.3545    1.9538 H       2  RES22       0.0362
     67 C39        -0.4485    4.1694   -0.5150 C.3     2  RES22      -0.0017
     68 H39A       -0.4078    4.3137   -1.4941 H       2  RES22       0.0362
     69 H39B       -1.3986    4.0880   -0.2509 H       2  RES22       0.0362
     70 C40         6.2721    5.0752    4.4358 C.3     2  RES22      -0.0018
     71 H40A        6.7406    5.9489    4.4435 H       2  RES22       0.0362
     72 H40B        6.8578    4.4174    4.8866 H       2  RES22       0.0362
     73 C41         5.2270    2.8722    6.2834 C.3     2  RES22      -0.0018
     74 H41A        6.1912    2.9653    6.0779 H       2  RES22       0.0362
     75 H41B        5.1396    2.5595    7.2183 H       2  RES22       0.0362
     76 C42         6.3744    2.1370    3.5197 C.3     2  RES22      -0.0018
     77 H42A        6.9379    2.4467    4.2722 H       2  RES22       0.0362
     78 H42B        6.8747    1.4308    3.0378 H       2  RES22       0.0362
     79 C43         4.1775    6.3827   -0.8399 C.3     2  RES22       0.2329
     80 H43A        3.7827    5.4760   -0.8310 H       2  RES22       0.1166
     81 H43B        4.2687    6.6719   -1.7825 H       2  RES22       0.1166
     82 C44         0.2693    5.9403    6.9531 C.3     2  RES22       0.2329
     83 H44A       -0.3122    6.5194    7.5056 H       2  RES22       0.1166
     84 H44B        0.3560    6.3546    6.0569 H       2  RES22       0.1166
     85 C45         2.6901   -1.2438    1.7637 C.3     2  RES22       0.2329
     86 H45A        1.9635   -1.8335    1.4410 H       2  RES22       0.1166
     87 H45B        3.5088   -1.7969    1.8377 H       2  RES22       0.1166
@<TRIPOS>BOND
     1     1    17    1
     2     2    25    1
     3     3    33    1
     4     4    10    1
     5     4    79    1
     6     5    18    1
     7     5    82    1
     8     6    26    1
     9     6    85    1
    10     7    34    1
    11     7    79    1
    12     8    43    1
    13     8    82    1
    14     9    52    1
    15     9    85    1
    16    10    11   ar
    17    10    17   ar
    18    11    12    1
    19    11    13   ar
    20    13    14   ar
    21    13    67    1
    22    14    15   ar
    23    14    61    1
    24    15    16    1
    25    15    17   ar
    26    18    19   ar
    27    18    25   ar
    28    19    20    1
    29    19    21   ar
    30    21    22   ar
    31    21    61    1
    32    22    23   ar
    33    22    64    1
    34    23    24    1
    35    23    25   ar
    36    26    27   ar
    37    26    33   ar
    38    27    28    1
    39    27    29   ar
    40    29    30   ar
    41    29    64    1
    42    30    31   ar
    43    30    67    1
    44    31    32    1
    45    31    33   ar
    46    34    35   ar
    47    34    41   ar
    48    35    36    1
    49    35    37   ar
    50    37    38   ar
    51    37    70    1
    52    38    39   ar
    53    38    76    1
    54    39    40    1
    55    39    41   ar
    56    41    42    1
    57    43    44   ar
    58    43    50   ar
    59    44    45    1
    60    44    46   ar
    61    46    47   ar
    62    46    73    1
    63    47    48   ar
    64    47    70    1
    65    48    49    1
    66    48    50   ar
    67    50    51    1
    68    52    53   ar
    69    52    59   ar
    70    53    54    1
    71    53    55   ar
    72    55    56   ar
    73    55    76    1
    74    56    57   ar
    75    56    73    1
    76    57    58    1
    77    57    59   ar
    78    59    60    1
    79    61    62    1
    80    61    63    1
    81    64    65    1
    82    64    66    1
    83    67    68    1
    84    67    69    1
    85    70    71    1
    86    70    72    1
    87    73    74    1
    88    73    75    1
    89    76    77    1
    90    76    78    1
    91    79    80    1
    92    79    81    1
    93    82    83    1
    94    82    84    1
    95    85    86    1
    96    85    87    1
