@<TRIPOS>MOLECULE
*****
 125 131 0 0 0
SMALL
GASTEIGER

@<TRIPOS>ATOM
      1 C1          2.1519   -0.7674   16.9722 C.3     1  RES11       0.1884
      2 C2          1.7573   -1.9040   16.0297 C.3     1  RES11       0.1341
      3 C3          2.5506   -1.7845   14.7436 C.3     1  RES11       0.1144
      4 C4          2.3898   -0.4044   14.1472 C.3     1  RES11       0.1184
      5 C5          2.7748    0.6740   15.1657 C.3     1  RES11       0.1134
      6 C6          2.5355    2.0863   14.6552 C.3     1  RES11       0.0730
      7 O1          2.0474   -3.1448   16.6948 O.3     1  RES11      -0.3841
      8 O2          2.0598   -2.7772   13.8232 O.3     1  RES11      -0.3864
      9 O3          3.3124   -0.3493   13.0427 O.3     1  RES11      -0.3401
     10 O4          1.9635    0.4886   16.3438 O.3     1  RES11      -0.3405
     11 O5          1.1976    2.2778   14.1987 O.3     1  RES11      -0.3924
     12 C7          2.8490    0.0628   11.7688 C.3     1  RES11       0.1884
     13 C8          3.1611   -1.0478   10.7724 C.3     1  RES11       0.1341
     14 C9          4.6489   -1.2775   10.7233 C.3     1  RES11       0.1144
     15 C10         5.3199    0.0291   10.4337 C.3     1  RES11       0.1184
     16 C11         4.9308    1.1489   11.3737 C.3     1  RES11       0.1134
     17 C12         5.4766    2.4999   10.9614 C.3     1  RES11       0.0730
     18 O6          2.5204   -2.2717   11.1724 O.3     1  RES11      -0.3841
     19 O7          5.0091   -2.1966    9.6802 O.3     1  RES11      -0.3864
     20 O8          6.7526   -0.2344   10.6374 O.3     1  RES11      -0.3401
     21 O9          3.4911    1.2561   11.3761 O.3     1  RES11      -0.3405
     22 O10         5.2676    2.7343    9.5648 O.3     1  RES11      -0.3924
     23 C13         7.6821    0.1103    9.6237 C.3     1  RES11       0.1884
     24 C14         8.5470   -1.1136    9.3905 C.3     1  RES11       0.1341
     25 C15         9.2400   -1.4874   10.6815 C.3     1  RES11       0.1144
     26 C16         9.9949   -0.2987   11.2583 C.3     1  RES11       0.1184
     27 C17         9.1506    0.9865   11.2902 C.3     1  RES11       0.1134
     28 C18         9.9770    2.2364   11.5529 C.3     1  RES11       0.0730
     29 O11         7.7468   -2.2089    8.9021 O.3     1  RES11      -0.3841
     30 O12        10.1901   -2.5336   10.4778 O.3     1  RES11      -0.3864
     31 O13        10.3386   -0.6709   12.5984 O.3     1  RES11      -0.3400
     32 O14         8.5003    1.1887   10.0189 O.3     1  RES11      -0.3405
     33 O15        11.1677    2.2946   10.7724 O.3     1  RES11      -0.3924
     34 C19        11.6517   -0.3891   13.0525 C.3     1  RES11       0.1917
     35 C20        12.1330   -1.6252   13.7913 C.3     1  RES11       0.1723
     36 C21        11.3520   -1.8320   15.0847 C.3     1  RES11       0.1177
     37 C22        11.3713   -0.5622   15.9119 C.3     1  RES11       0.1185
     38 C23        10.8295    0.6035   15.0847 C.3     1  RES11       0.1134
     39 C24        10.9161    1.9285   15.8088 C.3     1  RES11       0.0730
     40 O16        12.0271   -2.7726   12.9371 O.3     1  RES11      -0.2231
     41 O17        11.9694   -2.8936   15.8211 O.3     1  RES11      -0.3863
     42 O18        10.4968   -0.8180   17.0335 O.3     1  RES11      -0.3401
     43 O19        11.6683    0.7429   13.9164 O.3     1  RES11      -0.3404
     44 O20        10.2781    2.9365   14.9694 O.3     1  RES11      -0.3924
     45 C25        10.9753   -0.5132   18.3417 C.3     1  RES11       0.1884
     46 C26        10.7415   -1.7233   19.2253 C.3     1  RES11       0.1341
     47 C27         9.2565   -2.0204   19.3701 C.3     1  RES11       0.1144
     48 C28         8.4700   -0.7674   19.7383 C.3     1  RES11       0.1184
     49 C29         8.8454    0.4534   18.8940 C.3     1  RES11       0.1134
     50 C30         8.2899    1.7646   19.3922 C.3     1  RES11       0.0730
     51 O21        11.4263   -2.8415   18.6559 O.3     1  RES11      -0.3841
     52 O22         9.1204   -3.0207   20.3862 O.3     1  RES11      -0.3864
     53 O23         7.0895   -1.0799   19.4953 O.3     1  RES11      -0.3401
     54 O24        10.2864    0.6066   18.8792 O.3     1  RES11      -0.3405
     55 O25         8.4975    1.9393   20.8133 O.3     1  RES11      -0.3924
     56 C31         6.1160   -0.8073   20.4672 C.3     1  RES11       0.1884
     57 C32         5.1219   -1.9393   20.5311 C.3     1  RES11       0.1341
     58 C33         4.5279   -2.1399   19.1222 C.3     1  RES11       0.1144
     59 C34         3.8624   -0.8517   18.7222 C.3     1  RES11       0.1184
     60 C35         4.7589    0.3707   18.8670 C.3     1  RES11       0.1134
     61 C36         3.9751    1.6773   18.7614 C.3     1  RES11       0.0730
     62 O26         5.7186   -3.1249   21.0416 O.3     1  RES11      -0.3841
     63 O27         3.5613   -3.1953   19.1664 O.3     1  RES11      -0.3864
     64 O28         3.4980   -0.9650   17.3428 O.3     1  RES11      -0.3401
     65 O29         5.3983    0.3799   20.1801 O.3     1  RES11      -0.3405
     66 O30         2.7266    1.6513   19.4487 O.3     1  RES11      -0.3924
     67 H1          1.4988   -0.7199   17.9171 H       1  RES11       0.0938
     68 H2          0.6875   -1.8841   15.7818 H       1  RES11       0.0671
     69 H3          3.6575   -2.0067   14.9228 H       1  RES11       0.0648
     70 H4          1.3063   -0.2757   13.7937 H       1  RES11       0.0651
     71 H5          3.8638    0.5514   15.4382 H       1  RES11       0.0647
     72 H6          3.2038    2.2824   13.8183 H       1  RES11       0.0584
     73 H7          2.7500    2.8338   15.4382 H       1  RES11       0.0584
     74 H8          1.5125   -3.8295   16.3708 H       1  RES11       0.2101
     75 H9          2.3513   -2.6194   12.8611 H       1  RES11       0.2100
     76 H10         0.4263    1.5318   14.0146 H       1  RES11       0.2095
     77 H11         1.7738    0.3370   11.8548 H       1  RES11       0.0938
     78 H12         2.8325   -0.7659    9.7440 H       1  RES11       0.0671
     79 H13         4.9775   -1.6697   11.6584 H       1  RES11       0.0648
     80 H14         5.1700    0.3523    9.3758 H       1  RES11       0.0651
     81 H15         5.3213    0.9191   12.4193 H       1  RES11       0.0647
     82 H16         6.5313    2.5275   11.1430 H       1  RES11       0.0584
     83 H17         4.9088    3.3240   11.5357 H       1  RES11       0.0584
     84 H18         1.4025   -1.9913   11.0203 H       1  RES11       0.2101
     85 H19         5.0463   -3.0636   10.2594 H       1  RES11       0.2100
     86 H20         4.4825    3.4006    9.3758 H       1  RES11       0.2095
     87 H21         7.1363    0.4902    8.7868 H       1  RES11       0.0938
     88 H22         9.3087   -0.9344    8.6395 H       1  RES11       0.0671
     89 H23         8.5525   -1.8228   11.4130 H       1  RES11       0.0648
     90 H24        10.9175   -0.1379   10.6766 H       1  RES11       0.0651
     91 H25         8.3738    0.9191   12.1002 H       1  RES11       0.0647
     92 H26        10.2438    2.2671   12.5911 H       1  RES11       0.0584
     93 H27         9.3775    3.1555   11.3884 H       1  RES11       0.0584
     94 H28         6.9025   -2.2824    9.1304 H       1  RES11       0.2101
     95 H29         9.6113   -3.3700   10.5048 H       1  RES11       0.2100
     96 H30        11.0275    2.7113    9.8912 H       1  RES11       0.2095
     97 H31        12.3063   -0.1072   12.1738 H       1  RES11       0.0939
     98 H32        13.2138   -1.4705   14.0637 H       1  RES11       0.0706
     99 H33        10.2575   -2.0832   14.8737 H       1  RES11       0.0649
    100 H34        12.4163   -0.2757   16.2727 H       1  RES11       0.0651
    101 H35         9.7488    0.3830   14.8491 H       1  RES11       0.0647
    102 H36        12.0038    2.1905   15.9291 H       1  RES11       0.0584
    103 H37        10.3675    1.8228   16.7390 H       1  RES11       0.0584
    104 H38        11.4125   -3.0636   16.6899 H       1  RES11       0.2100
    105 H39         9.6388    3.4466   15.4873 H       1  RES11       0.2095
    106 H40        12.0450   -0.1838   18.3098 H       1  RES11       0.0938
    107 H41        11.1513   -1.5165   20.1997 H       1  RES11       0.0671
    108 H42         8.8825   -2.4049   18.4571 H       1  RES11       0.0648
    109 H43         8.6075   -0.5361   20.7888 H       1  RES11       0.0651
    110 H44         8.4563    0.3064   17.8680 H       1  RES11       0.0647
    111 H45         8.7175    2.6041   18.8007 H       1  RES11       0.0584
    112 H46         7.2050    1.7616   19.1934 H       1  RES11       0.0584
    113 H47        11.4950   -3.3393   19.1198 H       1  RES11       0.2101
    114 H48         8.3050   -3.0330   20.1261 H       1  RES11       0.2100
    115 H49         9.2125    2.5734   20.8624 H       1  RES11       0.2095
    116 H50         6.6825   -0.6127   21.4269 H       1  RES11       0.0938
    117 H51         4.3038   -1.6850   21.3042 H       1  RES11       0.0671
    118 H52         5.2663   -2.4049   18.3835 H       1  RES11       0.0648
    119 H53         2.9425   -0.7046   19.3407 H       1  RES11       0.0651
    120 H54         5.5275    0.3523   18.0889 H       1  RES11       0.0647
    121 H55         4.5925    2.5581   19.1689 H       1  RES11       0.0584
    122 H56         3.8088    1.8688   17.6471 H       1  RES11       0.0584
    123 H57         6.3525   -3.3853   20.1015 H       1  RES11       0.2101
    124 H58         3.2038   -3.3853   18.4080 H       1  RES11       0.2100
    125 H59         2.3788    1.8075   20.3715 H       1  RES11       0.2095
@<TRIPOS>BOND
     1     1     2    1
     2     2     3    1
     3     3     4    1
     4     4     5    1
     5     5     6    1
     6     6    11    1
     7     7     2    1
     8     8     3    1
     9     9     4    1
    10    10     1    1
    11    11    76    1
    12    12     9    1
    13    13    12    1
    14    14    13    1
    15    15    14    1
    16    16    15    1
    17    17    16    1
    18    18    13    1
    19    19    14    1
    20    20    15    1
    21    21    12    1
    22    22    17    1
    23    23    20    1
    24    24    23    1
    25    25    24    1
    26    26    25    1
    27    27    26    1
    28    28    27    1
    29    29    24    1
    30    30    25    1
    31    31    26    1
    32    32    23    1
    33    33    28    1
    34    34    31    1
    35    35    34    1
    36    36    35    1
    37    37    36    1
    38    38    37    1
    39    39    38    1
    40    40    35    1
    41    41    36    1
    42    42    37    1
    43    43    34    1
    44    44    39    1
    45    45    42    1
    46    46    45    1
    47    47    46    1
    48    48    47    1
    49    49    48    1
    50    50    49    1
    51    51    46    1
    52    52    47    1
    53    53    48    1
    54    54    45    1
    55    55    50    1
    56    56    53    1
    57    57    56    1
    58    58    57    1
    59    59    58    1
    60    60    59    1
    61    61    60    1
    62    62    57    1
    63    63    58    1
    64    64     1    1
    65    65    56    1
    66    66    61    1
    67    67     1    1
    68    68     2    1
    69    69     3    1
    70    70     4    1
    71    71     5    1
    72    72     6    1
    73    73     6    1
    74    74     7    1
    75    75     8    1
    76    77    12    1
    77    78    13    1
    78    79    14    1
    79    80    15    1
    80    81    16    1
    81    82    17    1
    82    83    17    1
    83    84    18    1
    84    85    19    1
    85    86    22    1
    86    87    23    1
    87    88    24    1
    88    89    25    1
    89    90    26    1
    90    91    27    1
    91    92    28    1
    92    93    28    1
    93    94    29    1
    94    95    30    1
    95    96    33    1
    96    97    34    1
    97    98    35    1
    98    99    36    1
    99   100    37    1
   100   101    38    1
   101   102    39    1
   102   103    39    1
   103   104    41    1
   104   105    44    1
   105   106    45    1
   106   107    46    1
   107   108    47    1
   108   109    48    1
   109   110    49    1
   110   111    50    1
   111   112    50    1
   112   113    51    1
   113   114    52    1
   114   115    55    1
   115   116    56    1
   116   117    57    1
   117   118    58    1
   118   119    59    1
   119   120    60    1
   120   121    61    1
   121   122    61    1
   122   123    62    1
   123   124    63    1
   124   125    66    1
   125     5    10    1
   126    16    21    1
   127    27    32    1
   128    38    43    1
   129    49    54    1
   130    59    64    1
   131    60    65    1
