@<TRIPOS>MOLECULE
*****
 340 372 0 0 0
SMALL
GASTEIGER

@<TRIPOS>ATOM
      1 O1         -9.0169  -17.0919   -2.8240 O.3     1  RES11      -0.4522
      2 C1         -9.9679  -17.3498   -3.8113 C.3     1  RES11       0.2333
      3 H1        -10.2788  -16.5056   -4.1772 H       1  RES11       0.1166
      4 H2         -9.5493  -17.8482   -4.5330 H       1  RES11       0.1166
      5 O2        -11.0613  -18.0709   -3.3352 O.3     1  RES11      -0.4522
      6 C2        -12.1537  -17.3049   -2.9769 C.ar    1  RES11       0.1735
      7 C3        -12.2421  -16.7167   -1.7165 C.ar    1  RES11       0.0061
      8 C4        -13.3885  -16.0073   -1.3556 C.ar    1  RES11      -0.0470
      9 H3        -13.4486  -15.6164   -0.5137 H       1  RES11       0.0626
     10 C5        -14.4475  -15.8881   -2.2577 C.ar    1  RES11       0.0061
     11 C6        -14.3565  -16.4763   -3.5206 C.ar    1  RES11       0.1735
     12 C7        -13.2109  -17.1837   -3.8790 C.ar    1  RES11       0.2048
     13 O3        -13.0301  -17.7075   -5.1394 O.3     1  RES11      -0.4825
     14 C8        -13.4977  -19.0305   -5.2171 C.3     1  RES11       0.1187
     15 H4        -14.4572  -19.0618   -5.0817 H       1  RES11       0.0724
     16 H5        -13.0694  -19.5855   -4.5480 H       1  RES11       0.0724
     17 C9        -13.1389  -19.5073   -6.6228 C.3     1  RES11       0.1251
     18 H6        -13.4253  -18.8331   -7.2743 H       1  RES11       0.0658
     19 O4        -13.7183  -20.7385   -6.9586 O.3     1  RES11      -0.3399
     20 C10       -12.7690  -21.7645   -6.7857 C.3     1  RES11       0.1657
     21 C11       -13.0998  -22.6556   -5.4877 C.3     1  RES11      -0.0108
     22 H7        -14.0499  -22.7553   -5.4000 H       1  RES11       0.0281
     23 H8        -12.7508  -22.2218   -4.7059 H       1  RES11       0.0281
     24 H9        -12.6948  -23.5214   -5.5804 H       1  RES11       0.0281
     25 C12       -12.6813  -22.6752   -8.0436 C.3     1  RES11      -0.0108
     26 H10       -13.0892  -23.5233   -7.8557 H       1  RES11       0.0281
     27 H11       -11.7601  -22.8081   -8.2791 H       1  RES11       0.0281
     28 H12       -13.1399  -22.2550   -8.7753 H       1  RES11       0.0281
     29 O5        -11.5302  -21.1782   -6.6078 O.3     1  RES11      -0.3399
     30 C13       -11.5991  -19.7184   -6.7581 C.3     1  RES11       0.1251
     31 H13       -11.1135  -19.2611   -6.0390 H       1  RES11       0.0658
     32 C14       -11.0982  -19.3197   -8.0837 C.3     1  RES11       0.1187
     33 H14       -10.2058  -19.6715   -8.2315 H       1  RES11       0.0724
     34 H15       -11.6822  -19.6519   -8.7828 H       1  RES11       0.0724
     35 O6        -11.0810  -17.9224   -8.0762 O.3     1  RES11      -0.4825
     36 O7        -15.4002  -16.4528   -4.4378 O.3     1  RES11      -0.4522
     37 C15       -15.4891  -15.2764   -5.2171 C.3     1  RES11       0.2333
     38 H16       -15.8126  -15.5011   -6.1041 H       1  RES11       0.1166
     39 H17       -14.6067  -14.8855   -5.3098 H       1  RES11       0.1166
     40 O8        -16.3694  -14.3266   -4.6207 O.3     1  RES11      -0.4522
     41 C16       -15.7913  -13.4062   -3.7762 C.ar    1  RES11       0.1735
     42 C17       -15.4783  -13.6915   -2.4482 C.ar    1  RES11       0.0061
     43 C18       -14.9221  -12.7026   -1.6363 C.ar    1  RES11      -0.0470
     44 H18       -14.7139  -12.8922   -0.7492 H       1  RES11       0.0626
     45 C19       -14.6807  -11.4304   -2.1525 C.ar    1  RES11       0.0061
     46 C20       -14.9937  -11.1451   -3.4805 C.ar    1  RES11       0.1735
     47 C21       -15.5474  -12.1339   -4.2949 C.ar    1  RES11       0.2048
     48 O9        -15.7454  -11.8740   -5.6506 O.3     1  RES11      -0.4825
     49 C22       -17.0423  -11.3268   -5.9788 C.3     1  RES11       0.1187
     50 H19       -17.1226  -10.4181   -5.6506 H       1  RES11       0.0724
     51 H20       -17.7500  -11.8643   -5.5904 H       1  RES11       0.0724
     52 C23       -17.1150  -11.3542   -7.4297 C.3     1  RES11       0.1251
     53 H21       -16.3098  -10.9340   -7.8005 H       1  RES11       0.0658
     54 O10       -18.2488  -10.5784   -7.7805 O.3     1  RES11      -0.3399
     55 C24       -19.2083  -11.4304   -8.4420 C.3     1  RES11       0.1657
     56 C25       -19.3573  -10.7953   -9.8528 C.3     1  RES11      -0.0108
     57 H22       -20.1155  -11.1803  -10.2988 H       1  RES11       0.0281
     58 H23       -18.5629  -10.9653  -10.3665 H       1  RES11       0.0281
     59 H24       -19.4838   -9.8475   -9.7651 H       1  RES11       0.0281
     60 C26       -20.5474  -11.2448   -7.7053 C.3     1  RES11      -0.0108
     61 H25       -21.2687  -11.2838   -8.3393 H       1  RES11       0.0281
     62 H26       -20.5553  -10.3907   -7.2668 H       1  RES11       0.0281
     63 H27       -20.6550  -11.9405   -7.0538 H       1  RES11       0.0281
     64 O11       -18.7442  -12.7104   -8.3819 O.3     1  RES11      -0.3399
     65 C27       -17.3211  -12.6479   -8.0712 C.3     1  RES11       0.1251
     66 H28       -17.1395  -13.3397   -7.4021 H       1  RES11       0.0658
     67 C28       -16.5205  -12.9606   -9.2414 C.3     1  RES11       0.1187
     68 H29       -16.8244  -13.7951   -9.6298 H       1  RES11       0.0724
     69 H30       -16.6245  -12.2610   -9.9029 H       1  RES11       0.0724
     70 O12       -15.1940  -13.0700   -8.8880 O.3     1  RES11      -0.4825
     71 O13       -14.8145   -9.8611   -4.0193 O.3     1  RES11      -0.4522
     72 C29       -13.5727   -9.5582   -4.4703 C.3     1  RES11       0.2333
     73 H31       -13.6512   -8.9954   -5.2546 H       1  RES11       0.1166
     74 H32       -13.1231  -10.3771   -4.7359 H       1  RES11       0.1166
     75 O14       -12.7875   -8.8938   -3.4981 O.3     1  RES11      -0.4522
     76 C30       -11.9900   -9.7517   -2.7489 C.ar    1  RES11       0.1735
     77 C31       -12.4942  -10.3966   -1.6187 C.ar    1  RES11       0.0061
     78 C32       -11.6359  -11.1040   -0.7793 C.ar    1  RES11      -0.0470
     79 H33       -11.9723  -11.5320   -0.0251 H       1  RES11       0.0626
     80 C33       -10.2724  -11.1685   -1.0675 C.ar    1  RES11       0.0061
     81 C34        -9.7664  -10.5236   -2.1976 C.ar    1  RES11       0.1735
     82 C35       -10.6265   -9.8162   -3.0370 C.ar    1  RES11       0.2048
     83 O15       -10.1526   -9.2631   -4.1721 O.3     1  RES11      -0.4825
     84 C36        -9.5545   -7.9382   -3.9942 C.3     1  RES11       0.1187
     85 H34        -8.7164   -7.9929   -3.5081 H       1  RES11       0.0724
     86 H35       -10.1547   -7.3402   -3.5231 H       1  RES11       0.0724
     87 C37        -9.3390   -7.4926   -5.3900 C.3     1  RES11       0.1251
     88 H36        -8.8697   -8.1942   -5.8911 H       1  RES11       0.0658
     89 O16        -8.5172   -6.2653   -5.3674 O.3     1  RES11      -0.3399
     90 C38        -9.3657   -5.1319   -5.6706 C.3     1  RES11       0.1657
     91 C39        -9.5889   -4.3521   -4.3075 C.3     1  RES11      -0.0108
     92 H37        -8.7607   -4.3091   -3.8238 H       1  RES11       0.0281
     93 H38       -10.2424   -4.8153   -3.7787 H       1  RES11       0.0281
     94 H39        -9.8989   -3.4629   -4.4929 H       1  RES11       0.0281
     95 C40        -8.7258   -4.3599   -6.7631 C.3     1  RES11      -0.0108
     96 H40        -9.2113   -3.5431   -6.9035 H       1  RES11       0.0281
     97 H41        -8.7334   -4.8798   -7.5700 H       1  RES11       0.0281
     98 H42        -7.8188   -4.1567   -6.5226 H       1  RES11       0.0281
     99 O17       -10.6393   -5.6458   -6.0114 O.3     1  RES11      -0.3399
    100 C41       -10.5028   -7.0392   -6.1542 C.3     1  RES11       0.1251
    101 H43       -11.2952   -7.4555   -5.7558 H       1  RES11       0.0658
    102 C42       -10.4849   -7.4105   -7.6226 C.3     1  RES11       0.1187
    103 H44       -11.2158   -6.9806   -8.0937 H       1  RES11       0.0724
    104 H45        -9.6459   -7.1447   -8.0336 H       1  RES11       0.0724
    105 O18       -10.6341   -8.8391   -7.6452 O.3     1  RES11      -0.4825
    106 O19        -8.4228  -10.5100   -2.4958 O.3     1  RES11      -0.4522
    107 C43        -7.9327  -11.6161   -3.1673 C.3     1  RES11       0.2333
    108 H46        -7.2115  -11.3366   -3.7487 H       1  RES11       0.1166
    109 H47        -8.6373  -11.9835   -3.7236 H       1  RES11       0.1166
    110 O20        -7.4472  -12.6518   -2.2878 O.3     1  RES11      -0.4522
    111 C44        -8.3615  -13.5938   -1.8969 C.ar    1  RES11       0.1735
    112 C45        -9.2590  -13.3983   -0.8495 C.ar    1  RES11       0.0061
    113 C46       -10.1130  -14.4321   -0.4586 C.ar    1  RES11      -0.0470
    114 H48       -10.7110  -14.3032    0.2406 H       1  RES11       0.0626
    115 C47       -10.0680  -15.6594   -1.1201 C.ar    1  RES11       0.0061
    116 C48        -9.1697  -15.8548   -2.1700 C.ar    1  RES11       0.1735
    117 C49        -8.3165  -14.8210   -2.5584 C.ar    1  RES11       0.2048
    118 O21        -7.5184  -14.9930   -3.6459 O.3     1  RES11      -0.4825
    119 C50        -6.2774  -15.5754   -3.3202 C.3     1  RES11       0.1187
    120 H49        -6.3764  -16.5212   -3.1322 H       1  RES11       0.0724
    121 H50        -5.8827  -15.1396   -2.5484 H       1  RES11       0.0724
    122 C51        -5.4039  -15.3428   -4.6056 C.3     1  RES11       0.1251
    123 H51        -5.8307  -15.7610   -5.3824 H       1  RES11       0.0658
    124 O22        -4.0832  -15.9897   -4.3425 O.3     1  RES11      -0.3399
    125 C52        -3.1342  -15.0047   -4.5129 C.3     1  RES11       0.1657
    126 C53        -2.1496  -14.9461   -3.2099 C.3     1  RES11      -0.0108
    127 H52        -1.9021  -15.8372   -2.9543 H       1  RES11       0.0281
    128 H53        -2.6053  -14.5201   -2.4832 H       1  RES11       0.0281
    129 H54        -1.3590  -14.4458   -3.4304 H       1  RES11       0.0281
    130 C54        -2.2302  -15.2959   -5.7132 C.3     1  RES11      -0.0108
    131 H55        -1.3644  -15.5715   -5.4025 H       1  RES11       0.0281
    132 H56        -2.1420  -14.5025   -6.2444 H       1  RES11       0.0281
    133 H57        -2.6185  -15.9955   -6.2419 H       1  RES11       0.0281
    134 O23        -3.7187  -13.7579   -4.6257 O.3     1  RES11      -0.3399
    135 C55        -5.0976  -13.9279   -4.9013 C.3     1  RES11       0.1251
    136 H58        -5.6613  -13.3104   -4.3876 H       1  RES11       0.0658
    137 C56        -5.2260  -13.7149   -6.4073 C.3     1  RES11       0.1187
    138 H59        -4.8670  -12.8492   -6.6554 H       1  RES11       0.0724
    139 H60        -4.7317  -14.4009   -6.8859 H       1  RES11       0.0724
    140 O24        -6.5392  -13.7833   -6.7230 O.3     1  RES11      -0.4825
    141 C57        -6.7569  -13.6387   -8.1012 C.ar    1  RES11       0.2048
    142 C58        -6.9841  -14.7878   -8.8580 C.ar    1  RES11       0.1735
    143 C59        -7.3228  -14.6803  -10.2061 C.ar    1  RES11       0.0061
    144 C60        -7.4372  -13.4218  -10.8000 C.ar    1  RES11      -0.0470
    145 H61        -7.6635  -13.3495  -11.6970 H       1  RES11       0.0626
    146 C61        -7.2117  -12.2727  -10.0432 C.ar    1  RES11       0.0061
    147 C62        -6.8720  -12.3802   -8.6926 C.ar    1  RES11       0.1735
    148 O25        -6.5574  -11.2956   -7.9258 O.3     1  RES11      -0.4522
    149 C63        -7.6349  -10.5100   -7.4322 C.3     1  RES11       0.2333
    150 H62        -8.3982  -11.0884   -7.2768 H       1  RES11       0.1166
    151 H63        -7.3776  -10.1308   -6.5777 H       1  RES11       0.1166
    152 O26        -8.0155   -9.4937   -8.2666 O.3     1  RES11      -0.4522
    153 C64        -9.0042   -9.7791   -9.1837 C.ar    1  RES11       0.1735
    154 C65        -8.7449  -10.4220  -10.3940 C.ar    1  RES11       0.0061
    155 C66        -9.7843  -10.6546  -11.2961 C.ar    1  RES11      -0.0470
    156 H64        -9.6109  -11.0845  -12.1030 H       1  RES11       0.0626
    157 C67       -11.0813  -10.2422  -10.9879 C.ar    1  RES11       0.0061
    158 C68       -11.3406   -9.5993   -9.7776 C.ar    1  RES11       0.1735
    159 C69       -10.3011   -9.3667   -8.8755 C.ar    1  RES11       0.2048
    160 O27       -12.6014   -9.1361   -9.4543 O.3     1  RES11      -0.4522
    161 C70       -13.4888  -10.1054   -8.8981 C.3     1  RES11       0.2333
    162 H65       -12.9726  -10.7777   -8.4270 H       1  RES11       0.1166
    163 H66       -14.0725   -9.6735   -8.2566 H       1  RES11       0.1166
    164 O28       -14.2679  -10.7269   -9.8904 O.3     1  RES11      -0.4522
    165 C71       -13.7907  -11.8779  -10.4341 C.ar    1  RES11       0.1735
    166 C72       -12.8656  -11.8975  -11.4790 C.ar    1  RES11       0.0061
    167 C73       -12.4690  -13.1130  -12.0378 C.ar    1  RES11      -0.0470
    168 H67       -11.8530  -13.1247  -12.7319 H       1  RES11       0.0626
    169 C74       -12.9983  -14.3090  -11.5492 C.ar    1  RES11       0.0061
    170 C75       -13.9226  -14.2895  -10.5068 C.ar    1  RES11       0.1735
    171 C76       -14.3192  -13.0739   -9.9480 C.ar    1  RES11       0.2048
    172 O29       -14.5450  -15.4444  -10.0958 O.3     1  RES11      -0.4522
    173 C77       -13.8257  -16.2379   -9.1687 C.3     1  RES11       0.2333
    174 H68       -14.4490  -16.6678   -8.5598 H       1  RES11       0.1166
    175 H69       -13.2388  -15.6711   -8.6450 H       1  RES11       0.1166
    176 O30       -13.0532  -17.2326   -9.8352 O.3     1  RES11      -0.4522
    177 C78       -11.7417  -16.8828  -10.1159 C.ar    1  RES11       0.1735
    178 C79       -11.4307  -16.1831  -11.2811 C.ar    1  RES11       0.0061
    179 C80       -10.0977  -15.9154  -11.5968 C.ar    1  RES11      -0.0470
    180 H70        -9.8892  -15.4483  -12.3736 H       1  RES11       0.0626
    181 C81        -9.0784  -16.3493  -10.7498 C.ar    1  RES11       0.0061
    182 C82        -9.3912  -17.0489   -9.5846 C.ar    1  RES11       0.1735
    183 C83       -10.7232  -17.3166   -9.2664 C.ar    1  RES11       0.2048
    184 O31        -8.4273  -17.5804   -8.7653 O.3     1  RES11      -0.4522
    185 C84        -7.9585  -16.6776   -7.7454 C.3     1  RES11       0.2333
    186 H71        -8.6512  -16.0288   -7.5374 H       1  RES11       0.1166
    187 H72        -7.7547  -17.1720   -6.9360 H       1  RES11       0.1166
    188 O32        -6.7994  -16.0053   -8.1989 O.3     1  RES11      -0.4522
    189 C85        -7.6123  -16.0034  -10.9854 C.3     1  RES11       0.0167
    190 H73        -7.0642  -16.7147  -10.5945 H       1  RES11       0.0400
    191 C86        -7.2133  -15.8392  -12.4463 C.3     1  RES11      -0.0379
    192 H74        -6.2926  -15.5382  -12.4964 H       1  RES11       0.0277
    193 H75        -7.7732  -15.1669  -12.8622 H       1  RES11       0.0277
    194 C87        -7.3619  -17.1818  -13.2105 C.3     1  RES11      -0.0268
    195 H76        -6.8081  -17.8599  -12.7921 H       1  RES11       0.0313
    196 H77        -8.2840  -17.4788  -13.1729 H       1  RES11       0.0313
    197 C88        -6.9416  -17.0059  -14.6714 C.ar    1  RES11      -0.0473
    198 C89        -7.7437  -16.2691  -15.5434 C.ar    1  RES11      -0.0586
    199 H78        -8.5603  -15.9310  -15.2502 H       1  RES11       0.0620
    200 C90        -7.3238  -16.0405  -16.8539 C.ar    1  RES11      -0.0615
    201 H79        -7.8591  -15.5480  -17.4353 H       1  RES11       0.0618
    202 C91        -6.1018  -16.5466  -17.2925 C.ar    1  RES11      -0.0617
    203 H80        -5.8205  -16.3942  -18.1670 H       1  RES11       0.0618
    204 C92        -5.2998  -17.2853  -16.4204 C.ar    1  RES11      -0.0615
    205 H81        -4.4831  -17.6234  -16.7136 H       1  RES11       0.0618
    206 C93        -5.7189  -17.5140  -15.1124 C.ar    1  RES11      -0.0586
    207 H82        -5.1836  -18.0045  -14.5311 H       1  RES11       0.0620
    208 C94       -12.5420  -15.6320  -12.1631 C.3     1  RES11       0.0167
    209 H83       -13.2968  -16.2457  -12.0353 H       1  RES11       0.0400
    210 C95       -12.2985  -15.6066  -13.6666 C.3     1  RES11      -0.0379
    211 H84       -12.9790  -15.0516  -14.0825 H       1  RES11       0.0277
    212 H85       -11.4390  -15.1904  -13.8345 H       1  RES11       0.0277
    213 C96       -12.3143  -16.9551  -14.3206 C.3     1  RES11      -0.0268
    214 H86       -11.5955  -17.4866  -13.9422 H       1  RES11       0.0313
    215 H87       -13.1499  -17.3948  -14.0926 H       1  RES11       0.0313
    216 C97       -12.1727  -16.9629  -15.7815 C.ar    1  RES11      -0.0473
    217 C98       -13.1784  -16.3962  -16.5633 C.ar    1  RES11      -0.0586
    218 H88       -13.9280  -16.0249  -16.1598 H       1  RES11       0.0620
    219 C99       -13.0567  -16.3844  -17.9540 C.ar    1  RES11      -0.0615
    220 H89       -13.7260  -16.0053  -18.4752 H       1  RES11       0.0618
    221 C100      -11.9301  -16.9414  -18.5604 C.ar    1  RES11      -0.0617
    222 H90       -11.8490  -16.9336  -19.4875 H       1  RES11       0.0618
    223 C101      -10.9252  -17.5081  -17.7761 C.ar    1  RES11      -0.0615
    224 H91       -10.1730  -17.8794  -18.1820 H       1  RES11       0.0618
    225 C102      -11.0461  -17.5199  -16.3879 C.ar    1  RES11      -0.0586
    226 H92       -10.3758  -17.8990  -15.8642 H       1  RES11       0.0620
    227 C103      -12.2913  -10.5412  -11.9125 C.3     1  RES11       0.0167
    228 H93       -12.9749   -9.8631  -11.7221 H       1  RES11       0.0400
    229 C104      -11.9697  -10.4591  -13.4786 C.3     1  RES11      -0.0379
    230 H94       -11.2073  -11.0200  -13.6941 H       1  RES11       0.0277
    231 H95       -12.7336  -10.7679  -13.9923 H       1  RES11       0.0277
    232 C105      -11.6668   -9.0110  -13.8094 C.3     1  RES11      -0.0268
    233 H96       -12.4623   -8.4912  -13.6190 H       1  RES11       0.0313
    234 H97       -10.9750   -8.7081  -13.2005 H       1  RES11       0.0313
    235 C106      -11.2290   -8.6788  -15.1951 C.ar    1  RES11      -0.0473
    236 C107      -10.4860   -7.5219  -15.4282 C.ar    1  RES11      -0.0586
    237 H98       -10.2493   -6.9689  -14.7190 H       1  RES11       0.0620
    238 C108      -10.0976   -7.1916  -16.7287 C.ar    1  RES11      -0.0615
    239 H99        -9.6022   -6.4217  -16.8840 H       1  RES11       0.0618
    240 C109      -10.4530   -8.0202  -17.7936 C.ar    1  RES11      -0.0617
    241 H100      -10.1960   -7.8014  -18.6581 H       1  RES11       0.0618
    242 C110      -11.1968   -9.1772  -17.5581 C.ar    1  RES11      -0.0615
    243 H101      -11.4352   -9.7302  -18.2672 H       1  RES11       0.0618
    244 C111      -11.5844   -9.5074  -16.2601 C.ar    1  RES11      -0.0586
    245 H102      -12.0805  -10.2774  -16.1022 H       1  RES11       0.0620
    246 C112       -7.3402  -10.8969  -10.6546 C.3     1  RES11       0.0167
    247 H103       -6.7369  -10.3009  -10.1610 H       1  RES11       0.0400
    248 C113       -6.8956  -10.8793  -12.1481 C.3     1  RES11      -0.0379
    249 H104       -7.0457   -9.9999  -12.5290 H       1  RES11       0.0277
    250 H105       -7.4090  -11.5262  -12.6567 H       1  RES11       0.0277
    251 C114       -5.3852  -11.2330  -12.2057 C.3     1  RES11      -0.0268
    252 H108       -4.8832  -10.5217  -11.7747 H       1  RES11       0.0313
    253 H109       -5.2381  -12.0460  -11.6945 H       1  RES11       0.0313
    254 C115       -4.8577  -11.4285  -13.5714 C.ar    1  RES11      -0.0473
    255 C116       -4.0620  -10.4787  -14.2154 C.ar    1  RES11      -0.0586
    256 H110       -3.8756   -9.6696  -13.7969 H       1  RES11       0.0620
    257 C117       -3.5498  -10.7425  -15.4858 C.ar    1  RES11      -0.0615
    258 H111       -3.0214  -10.1093  -15.9143 H       1  RES11       0.0618
    259 C118       -3.8333  -11.9561  -16.1122 C.ar    1  RES11      -0.0617
    260 H112       -3.4913  -12.1300  -16.9592 H       1  RES11       0.0618
    261 C119       -4.6265  -12.9059  -15.4708 C.ar    1  RES11      -0.0615
    262 H113       -4.8146  -13.7130  -15.8892 H       1  RES11       0.0618
    263 C120       -5.1387  -12.6420  -14.2003 C.ar    1  RES11      -0.0586
    264 H114       -5.6689  -13.2752  -13.7718 H       1  RES11       0.0620
    265 C128      -11.0005  -16.8105   -0.7793 C.3     1  RES11       0.0167
    266 H122      -10.5290  -17.6312   -1.0299 H       1  RES11       0.0400
    267 C129      -11.3294  -16.9433    0.7016 C.3     1  RES11      -0.0379
    268 H123      -10.5079  -16.8671    1.2128 H       1  RES11       0.0277
    269 H124      -11.9052  -16.2066    0.9622 H       1  RES11       0.0277
    270 C130      -11.9958  -18.2175    1.0599 C.3     1  RES11      -0.0268
    271 H125      -11.4351  -18.9406    0.7392 H       1  RES11       0.0313
    272 H126      -12.8273  -18.2625    0.5638 H       1  RES11       0.0313
    273 C131      -12.3189  -18.5028    2.5108 C.ar    1  RES11      -0.0473
    274 C132      -11.8416  -17.6957    3.5432 C.ar    1  RES11      -0.0586
    275 H127      -11.3331  -16.9414    3.3452 H       1  RES11       0.0620
    276 C133      -12.1224  -18.0201    4.8688 C.ar    1  RES11      -0.0615
    277 H128      -11.8032  -17.4827    5.5578 H       1  RES11       0.0618
    278 C134      -12.8830  -19.1517    5.1644 C.ar    1  RES11      -0.0617
    279 H129      -13.0716  -19.3686    6.0490 H       1  RES11       0.0618
    280 C135      -13.3604  -19.9588    4.1320 C.ar    1  RES11      -0.0615
    281 H130      -13.8689  -20.7131    4.3300 H       1  RES11       0.0618
    282 C136      -13.0788  -19.6343    2.8040 C.ar    1  RES11      -0.0586
    283 H131      -13.3969  -20.1737    2.1174 H       1  RES11       0.0620
    284 C137       -9.3205  -12.0128   -0.2381 C.3     1  RES11       0.0167
    285 H132       -8.4284  -11.6180   -0.3333 H       1  RES11       0.0400
    286 C138       -9.6622  -12.0010    1.2729 C.3     1  RES11      -0.0379
    287 H133      -10.5884  -12.2590    1.3982 H       1  RES11       0.0277
    288 H134       -9.1029  -12.6440    1.7365 H       1  RES11       0.0277
    289 C139       -9.4345  -10.6018    1.8618 C.3     1  RES11      -0.0268
    290 H135       -8.4776  -10.4376    1.9069 H       1  RES11       0.0313
    291 H136       -9.8147   -9.9452    1.2554 H       1  RES11       0.0313
    292 C140      -10.0120  -10.3966    3.1999 C.ar    1  RES11      -0.0473
    293 C141       -9.2724  -10.7015    4.3425 C.ar    1  RES11      -0.0586
    294 H137       -8.4063  -11.0298    4.2623 H       1  RES11       0.0620
    295 C142       -9.8327  -10.5119    5.6080 C.ar    1  RES11      -0.0615
    296 H138       -9.3391  -10.7152    6.3697 H       1  RES11       0.0618
    297 C143      -11.1319  -10.0214    5.7282 C.ar    1  RES11      -0.0617
    298 H139      -11.5043   -9.8944    6.5702 H       1  RES11       0.0618
    299 C144      -11.8715   -9.7165    4.5856 C.ar    1  RES11      -0.0615
    300 H140      -12.7375   -9.3882    4.6658 H       1  RES11       0.0618
    301 C145      -11.3111   -9.9041    3.3202 C.ar    1  RES11      -0.0586
    302 H141      -11.8048   -9.7029    2.5584 H       1  RES11       0.0620
    303 C146      -13.9741  -10.3810   -1.3331 C.3     1  RES11       0.0167
    304 H142      -14.3059   -9.5152   -1.6488 H       1  RES11       0.0400
    305 C147      -14.2994  -10.4474    0.1879 C.3     1  RES11      -0.0379
    306 H143      -14.0808  -11.3347    0.5137 H       1  RES11       0.0277
    307 H144      -13.7267   -9.8162    0.6540 H       1  RES11       0.0277
    308 C148      -15.6904  -10.1562    0.5362 C.3     1  RES11      -0.0268
    309 H145      -16.2905  -10.7464    0.0551 H       1  RES11       0.0313
    310 H146      -15.9109   -9.2397    0.3082 H       1  RES11       0.0313
    311 C149      -15.8246  -10.3771    2.0648 C.ar    1  RES11      -0.0473
    312 C150      -16.0335  -11.5848    2.7338 C.ar    1  RES11      -0.0586
    313 H147      -16.0512  -12.3821    2.2577 H       1  RES11       0.0620
    314 C151      -16.2149  -11.5946    4.1170 C.ar    1  RES11      -0.0615
    315 H148      -16.3540  -12.3978    4.5605 H       1  RES11       0.0618
    316 C152      -16.1893  -10.3966    4.8312 C.ar    1  RES11      -0.0617
    317 H149      -16.3097  -10.4025    5.7533 H       1  RES11       0.0618
    318 C153      -15.9804   -9.1889    4.1621 C.ar    1  RES11      -0.0615
    319 H150      -15.9635   -8.3915    4.6407 H       1  RES11       0.0618
    320 C154      -15.7990   -9.1811    2.7789 C.ar    1  RES11      -0.0586
    321 H151      -15.6599   -8.3759    2.3354 H       1  RES11       0.0620
    322 C155      -15.6928  -15.1064   -1.9445 C.3     1  RES11       0.0167
    323 H152      -16.3994  -15.4874   -2.5058 H       1  RES11       0.0400
    324 C156      -16.2048  -15.2080   -0.4911 C.3     1  RES11      -0.0379
    325 H153      -16.2667  -16.1402   -0.2280 H       1  RES11       0.0277
    326 H154      -15.5844  -14.7644    0.1077 H       1  RES11       0.0277
    327 C157      -17.5670  -14.5572   -0.3909 C.3     1  RES11      -0.0268
    328 H155      -18.0961  -14.8445   -1.1527 H       1  RES11       0.0313
    329 H156      -17.4496  -13.5977   -0.4661 H       1  RES11       0.0313
    330 C158      -18.3521  -14.8425    0.8670 C.ar    1  RES11      -0.0473
    331 C159      -18.7734  -13.7403    1.6087 C.ar    1  RES11      -0.0586
    332 H157      -18.5221  -12.8824    1.3531 H       1  RES11       0.0620
    333 C160      -19.5768  -13.9240    2.7363 C.ar    1  RES11      -0.0615
    334 H158      -19.8574  -13.1892    3.2300 H       1  RES11       0.0618
    335 C161      -19.9546  -15.2119    3.1197 C.ar    1  RES11      -0.0617
    336 H159      -20.4900  -15.3330    3.8689 H       1  RES11       0.0618
    337 C162      -19.5326  -16.3141    2.3755 C.ar    1  RES11      -0.0615
    338 H160      -19.7838  -17.1720    2.6311 H       1  RES11       0.0618
    339 C163      -18.7299  -16.1304    1.2504 C.ar    1  RES11      -0.0586
    340 H161      -18.4486  -16.8652    0.7542 H       1  RES11       0.0620
@<TRIPOS>BOND
     1     1     2    1
     2     2     3    1
     3     4     2    1
     4     5     2    1
     5     6     5    1
     6     7     6   ar
     7     8     7   ar
     8     9     8    1
     9    10     8   ar
    10    11    10   ar
    11    12     6   ar
    12    13    12    1
    13    14    13    1
    14    15    14    1
    15    16    14    1
    16    17    14    1
    17    18    17    1
    18    19    17    1
    19    20    19    1
    20    21    20    1
    21    22    21    1
    22    23    21    1
    23    24    21    1
    24    25    20    1
    25    26    25    1
    26    27    25    1
    27    28    25    1
    28    29    20    1
    29    30    17    1
    30    31    30    1
    31    32    30    1
    32    33    32    1
    33    34    32    1
    34    35    32    1
    35    36    11    1
    36    37    36    1
    37    38    37    1
    38    39    37    1
    39    40    37    1
    40    41    40    1
    41    42    41   ar
    42    43    42   ar
    43    44    43    1
    44    45    43   ar
    45    46    45   ar
    46    47    41   ar
    47    48    47    1
    48    49    48    1
    49    50    49    1
    50    51    49    1
    51    52    49    1
    52    53    52    1
    53    54    52    1
    54    55    54    1
    55    56    55    1
    56    57    56    1
    57    58    56    1
    58    59    56    1
    59    60    55    1
    60    61    60    1
    61    62    60    1
    62    63    60    1
    63    64    55    1
    64    65    52    1
    65    66    65    1
    66    67    65    1
    67    68    67    1
    68    69    67    1
    69    70    67    1
    70    71    46    1
    71    72    71    1
    72    73    72    1
    73    74    72    1
    74    75    72    1
    75    76    75    1
    76    77    76   ar
    77    78    77   ar
    78    79    78    1
    79    80    78   ar
    80    81    80   ar
    81    82    76   ar
    82    83    82    1
    83    84    83    1
    84    85    84    1
    85    86    84    1
    86    87    84    1
    87    88    87    1
    88    89    87    1
    89    90    89    1
    90    91    90    1
    91    92    91    1
    92    93    91    1
    93    94    91    1
    94    95    90    1
    95    96    95    1
    96    97    95    1
    97    98    95    1
    98    99    90    1
    99   100    87    1
   100   101   100    1
   101   102   100    1
   102   103   102    1
   103   104   102    1
   104   105   102    1
   105   106    81    1
   106   107   106    1
   107   108   107    1
   108   109   107    1
   109   110   107    1
   110   111   110    1
   111   112   111   ar
   112   113   112   ar
   113   114   113    1
   114   115   113   ar
   115   116     1    1
   116   117   111   ar
   117   118   117    1
   118   119   118    1
   119   120   119    1
   120   121   119    1
   121   122   119    1
   122   123   122    1
   123   124   122    1
   124   125   124    1
   125   126   125    1
   126   127   126    1
   127   128   126    1
   128   129   126    1
   129   130   125    1
   130   131   130    1
   131   132   130    1
   132   133   130    1
   133   134   125    1
   134   135   122    1
   135   136   135    1
   136   137   135    1
   137   138   137    1
   138   139   137    1
   139   140   137    1
   140   141   140    1
   141   142   141   ar
   142   143   142   ar
   143   144   143   ar
   144   145   144    1
   145   146   144   ar
   146   147   141   ar
   147   148   147    1
   148   149   148    1
   149   150   149    1
   150   151   149    1
   151   152   149    1
   152   153   152    1
   153   154   153   ar
   154   155   154   ar
   155   156   155    1
   156   157   155   ar
   157   158   157   ar
   158   159   105    1
   159   160   158    1
   160   161   160    1
   161   162   161    1
   162   163   161    1
   163   164   161    1
   164   165   164    1
   165   166   165   ar
   166   167   166   ar
   167   168   167    1
   168   169   167   ar
   169   170   169   ar
   170   171    70    1
   171   172   170    1
   172   173   172    1
   173   174   173    1
   174   175   173    1
   175   176   173    1
   176   177   176    1
   177   178   177   ar
   178   179   178   ar
   179   180   179    1
   180   181   179   ar
   181   182   181   ar
   182   183    35    1
   183   184   182    1
   184   185   184    1
   185   186   185    1
   186   187   185    1
   187   188   142    1
   188   189   143    1
   189   190   189    1
   190   191   189    1
   191   192   191    1
   192   193   191    1
   193   194   191    1
   194   195   194    1
   195   196   194    1
   196   197   194    1
   197   198   197   ar
   198   199   198    1
   199   200   198   ar
   200   201   200    1
   201   202   200   ar
   202   203   202    1
   203   204   202   ar
   204   205   204    1
   205   206   197   ar
   206   207   206    1
   207   208   169    1
   208   209   208    1
   209   210   208    1
   210   211   210    1
   211   212   210    1
   212   213   210    1
   213   214   213    1
   214   215   213    1
   215   216   213    1
   216   217   216   ar
   217   218   217    1
   218   219   217   ar
   219   220   219    1
   220   221   219   ar
   221   222   221    1
   222   223   221   ar
   223   224   223    1
   224   225   216   ar
   225   226   225    1
   226   227   157    1
   227   228   227    1
   228   229   227    1
   229   230   229    1
   230   231   229    1
   231   232   229    1
   232   233   232    1
   233   234   232    1
   234   235   232    1
   235   236   235   ar
   236   237   236    1
   237   238   236   ar
   238   239   238    1
   239   240   238   ar
   240   241   240    1
   241   242   240   ar
   242   243   242    1
   243   244   235   ar
   244   245   244    1
   245   246   146    1
   246   247   246    1
   247   248   246    1
   248   249   248    1
   249   250   248    1
   250   251   248    1
   251   252   251    1
   252   253   251    1
   253   254   251    1
   254   255   254   ar
   255   256   255    1
   256   257   255   ar
   257   258   257    1
   258   259   257   ar
   259   260   259    1
   260   261   259   ar
   261   262   261    1
   262   263   254   ar
   263   264   263    1
   264   265     7    1
   265   266   265    1
   266   267   265    1
   267   268   267    1
   268   269   267    1
   269   270   267    1
   270   271   270    1
   271   272   270    1
   272   273   270    1
   273   274   273   ar
   274   275   274    1
   275   276   274   ar
   276   277   276    1
   277   278   276   ar
   278   279   278    1
   279   280   278   ar
   280   281   280    1
   281   282   273   ar
   282   283   282    1
   283   284    80    1
   284   285   284    1
   285   286   284    1
   286   287   286    1
   287   288   286    1
   288   289   286    1
   289   290   289    1
   290   291   289    1
   291   292   289    1
   292   293   292   ar
   293   294   293    1
   294   295   293   ar
   295   296   295    1
   296   297   295   ar
   297   298   297    1
   298   299   297   ar
   299   300   299    1
   300   301   292   ar
   301   302   301    1
   302   303    45    1
   303   304   303    1
   304   305   303    1
   305   306   305    1
   306   307   305    1
   307   308   305    1
   308   309   308    1
   309   310   308    1
   310   311   308    1
   311   312   311   ar
   312   313   312    1
   313   314   312   ar
   314   315   314    1
   315   316   314   ar
   316   317   316    1
   317   318   316   ar
   318   319   318    1
   319   320   311   ar
   320   321   320    1
   321   322    10    1
   322   323   322    1
   323   324   322    1
   324   325   324    1
   325   326   324    1
   326   327   324    1
   327   328   327    1
   328   329   327    1
   329   330   327    1
   330   331   330   ar
   331   332   331    1
   332   333   331   ar
   333   334   333    1
   334   335   333   ar
   335   336   335    1
   336   337   335   ar
   337   338   337    1
   338   339   330   ar
   339   340   339    1
   340    11    12   ar
   341    29    30    1
   342    42   322    1
   343    46    47   ar
   344    64    65    1
   345    77   303    1
   346    81    82   ar
   347    99   100    1
   348   112   284    1
   349   115   116   ar
   350   115   265    1
   351   116   117   ar
   352   134   135    1
   353   146   147   ar
   354   153   159   ar
   355   154   246    1
   356   158   159   ar
   357   165   171   ar
   358   166   227    1
   359   170   171   ar
   360   177   183   ar
   361   178   208    1
   362   181   189    1
   363   182   183   ar
   364   185   188    1
   365   204   206   ar
   366   223   225   ar
   367   242   244   ar
   368   261   263   ar
   369   280   282   ar
   370   299   301   ar
   371   318   320   ar
   372   337   339   ar
