@<TRIPOS>MOLECULE
*****
 144 152 0 0 0
SMALL
GASTEIGER

@<TRIPOS>ATOM
      1 C13        15.1419    6.1163   14.5134 C.3     1  RES11       0.1470
      2 H19        16.0109    6.5329   14.3306 H       1  RES11       0.0898
      3 C14        14.5324    6.7924   15.6982 C.3     1  RES11      -0.0840
      4 H20        14.4586    7.7447   15.4876 H       1  RES11       0.0151
      5 C15        13.0944    6.2520   15.9088 C.3     1  RES11      -0.1052
      6 H21        13.1301    5.3092   16.1795 H       1  RES11       0.0128
      7 C16        12.3135    6.3829   14.6453 C.3     1  RES11       0.0735
      8 H22        12.2111    7.3305   14.4162 H       1  RES11       0.0611
      9 C17        13.0182    5.6663   13.5323 C.3     1  RES11       0.0717
     10 H23        13.0968    4.7235   13.7868 H       1  RES11       0.0609
     11 C18        12.2968    5.7282   12.1740 C.3     1  RES11      -0.1101
     12 H24        12.7516    5.1521   11.5376 H       1  RES11       0.0100
     13 H25        11.3874    5.4116   12.2735 H       1  RES11       0.0100
     14 O13        15.3038    6.6758   16.8922 O.co2   1  RES11      -0.8507
     15 O14        12.4254    7.0305   16.9385 O.co2   1  RES11      -0.8522
     16 O15        11.0350    5.8068   14.8813 O.3     1  RES11      -0.3478
     17 O16        14.3729    6.2044   13.3819 O.3     1  RES11      -0.3480
     18 O17        12.2849    7.0448   11.6857 O.co2   1  RES11      -0.8541
     19 C19         9.9160    6.5829   14.4995 C.3     1  RES11       0.1470
     20 H28        10.2136    7.4971   14.3144 H       1  RES11       0.0898
     21 C20         8.9780    6.6067   15.6658 C.3     1  RES11      -0.0840
     22 H29         8.2280    7.1948   15.4344 H       1  RES11       0.0151
     23 C21         8.4161    5.2140   15.9319 C.3     1  RES11      -0.1052
     24 H30         9.1375    4.5902   16.1540 H       1  RES11       0.0128
     25 C22         7.7114    4.7806   14.6384 C.3     1  RES11       0.0735
     26 H31         6.9829    5.4020   14.4232 H       1  RES11       0.0611
     27 C23         8.7280    4.7806   13.5462 C.3     1  RES11       0.0717
     28 H32         9.4542    4.1735   13.8030 H       1  RES11       0.0609
     29 C24         8.1685    4.3164   12.2110 C.3     1  RES11      -0.1101
     30 H33         8.8780    4.2973   11.5515 H       1  RES11       0.0100
     31 H34         7.8162    3.4164   12.3012 H       1  RES11       0.0100
     32 O19         9.5756    7.1091   16.8621 O.co2   1  RES11      -0.8507
     33 O20         7.4138    5.2235   16.9755 O.co2   1  RES11      -0.8522
     34 O21        15.3609    4.7140   14.8443 O.3     1  RES11      -0.3478
     35 O22         9.2708    6.0829   13.3703 O.3     1  RES11      -0.3480
     36 O23         7.1567    5.1735   11.7852 O.co2   1  RES11      -0.8541
     37 C22C       16.6846    4.1926   14.6384 C.3     1  RES11       0.0735
     38 C21C       17.1180    3.4879   15.9319 C.3     1  RES11      -0.1052
     39 C20C       18.5107    2.9260   15.6658 C.3     1  RES11      -0.0840
     40 C19C       18.4869    1.9880   14.4995 C.3     1  RES11       0.1470
     41 O15C       17.7108    0.8690   14.8813 O.3     1  RES11      -0.3478
     42 C16C       18.2869   -0.4095   14.6453 C.3     1  RES11       0.0735
     43 C15C       18.1560   -1.1904   15.9088 C.3     1  RES11      -0.1052
     44 C14C       18.6964   -2.6284   15.6982 C.3     1  RES11      -0.0840
     45 C13C       18.0203   -3.2379   14.5134 C.3     1  RES11       0.1470
     46 H19C       18.4369   -4.1069   14.3306 H       1  RES11       0.0898
     47 O16C       18.1084   -2.4689   13.3819 O.3     1  RES11      -0.3480
     48 C17C       17.5703   -1.1142   13.5323 C.3     1  RES11       0.0717
     49 H22C       19.2345   -0.3071   14.4162 H       1  RES11       0.0611
     50 H23C       16.6275   -1.1928   13.7868 H       1  RES11       0.0609
     51 C18C       17.6322   -0.3928   12.1740 C.3     1  RES11      -0.1101
     52 H24C       17.0561   -0.8476   11.5376 H       1  RES11       0.0100
     53 H25C       17.3156    0.5166   12.2735 H       1  RES11       0.0100
     54 O17C       18.9488   -0.3809   11.6857 O.co2   1  RES11      -0.8541
     55 O21C       16.6180   -3.4569   14.8443 O.3     1  RES11      -0.3478
     56 C22A       16.0966   -4.7806   14.6384 C.3     1  RES11       0.0735
     57 C21A       15.3919   -5.2140   15.9319 C.3     1  RES11      -0.1052
     58 C20A       14.8300   -6.6067   15.6658 C.3     1  RES11      -0.0840
     59 C19A       13.8920   -6.5829   14.4995 C.3     1  RES11       0.1470
     60 O15A       12.7730   -5.8068   14.8813 O.3     1  RES11      -0.3478
     61 C16A       11.4945   -6.3829   14.6453 C.3     1  RES11       0.0735
     62 C15A       10.7136   -6.2520   15.9088 C.3     1  RES11      -0.1052
     63 C14A        9.2756   -6.7924   15.6982 C.3     1  RES11      -0.0840
     64 C13A        8.6661   -6.1163   14.5134 C.3     1  RES11       0.1470
     65 H19A        7.7971   -6.5329   14.3306 H       1  RES11       0.0898
     66 O16A        9.4351   -6.2044   13.3819 O.3     1  RES11      -0.3480
     67 C17A       10.7898   -5.6663   13.5323 C.3     1  RES11       0.0717
     68 H22A       11.5969   -7.3305   14.4162 H       1  RES11       0.0611
     69 H23A       10.7112   -4.7235   13.7868 H       1  RES11       0.0609
     70 C18A       11.5112   -5.7282   12.1740 C.3     1  RES11      -0.1101
     71 H24A       11.0564   -5.1521   11.5376 H       1  RES11       0.0100
     72 H25A       12.4206   -5.4116   12.2735 H       1  RES11       0.0100
     73 O17A       11.5231   -7.0448   11.6857 O.co2   1  RES11      -0.8541
     74 O21A        8.4471   -4.7140   14.8443 O.3     1  RES11      -0.3478
     75 C22B        7.1234   -4.1926   14.6384 C.3     1  RES11       0.0735
     76 C21B        6.6900   -3.4879   15.9319 C.3     1  RES11      -0.1052
     77 C20B        5.2973   -2.9260   15.6658 C.3     1  RES11      -0.0840
     78 C19B        5.3211   -1.9880   14.4995 C.3     1  RES11       0.1470
     79 O15B        6.0972   -0.8690   14.8813 O.3     1  RES11      -0.3478
     80 C16B        5.5211    0.4095   14.6453 C.3     1  RES11       0.0735
     81 C15B        5.6520    1.1904   15.9088 C.3     1  RES11      -0.1052
     82 C14B        5.1116    2.6284   15.6982 C.3     1  RES11      -0.0840
     83 C13B        5.7877    3.2379   14.5134 C.3     1  RES11       0.1470
     84 H19B        5.3711    4.1069   14.3306 H       1  RES11       0.0898
     85 O16B        5.6996    2.4689   13.3819 O.3     1  RES11      -0.3480
     86 C17B        6.2377    1.1142   13.5323 C.3     1  RES11       0.0717
     87 H22B        4.5735    0.3071   14.4162 H       1  RES11       0.0611
     88 H23B        7.1805    1.1928   13.7868 H       1  RES11       0.0609
     89 C18B        6.1758    0.3928   12.1740 C.3     1  RES11      -0.1101
     90 H24B        6.7519    0.8476   11.5376 H       1  RES11       0.0100
     91 H25B        6.4924   -0.5166   12.2735 H       1  RES11       0.0100
     92 O17B        4.8592    0.3809   11.6857 O.co2   1  RES11      -0.8541
     93 O21B        7.1900    3.4569   14.8443 O.3     1  RES11      -0.3478
     94 H20B        4.1593    2.5546   15.4876 H       1  RES11       0.0151
     95 O13B        5.2282    3.3998   16.8922 O.co2   1  RES11      -0.8507
     96 H21B        6.5948    1.2261   16.1795 H       1  RES11       0.0128
     97 O14B        4.8735    0.5214   16.9385 O.co2   1  RES11      -0.8522
     98 H28B        4.4069   -1.6904   14.3144 H       1  RES11       0.0898
     99 O22B        5.8211   -2.6332   13.3703 O.3     1  RES11      -0.3480
    100 C23B        7.1234   -3.1760   13.5462 C.3     1  RES11       0.0717
    101 H31B        6.5020   -4.9211   14.4232 H       1  RES11       0.0611
    102 H32B        7.7305   -2.4498   13.8030 H       1  RES11       0.0609
    103 C24B        7.5876   -3.7355   12.2110 C.3     1  RES11      -0.1101
    104 H33B        7.6067   -3.0260   11.5515 H       1  RES11       0.0100
    105 H34B        8.4876   -4.0878   12.3012 H       1  RES11       0.0100
    106 O23B        6.7305   -4.7473   11.7852 O.co2   1  RES11      -0.8541
    107 H29B        4.7092   -3.6760   15.4344 H       1  RES11       0.0151
    108 O19B        4.7949   -2.3284   16.8621 O.co2   1  RES11      -0.8507
    109 H30B        7.3138   -2.7665   16.1540 H       1  RES11       0.0128
    110 O20B        6.6805   -4.4902   16.9755 O.co2   1  RES11      -0.8522
    111 H20A        9.3494   -7.7447   15.4876 H       1  RES11       0.0151
    112 O13A        8.5042   -6.6758   16.8922 O.co2   1  RES11      -0.8507
    113 H21A       10.6779   -5.3092   16.1795 H       1  RES11       0.0128
    114 O14A       11.3826   -7.0305   16.9385 O.co2   1  RES11      -0.8522
    115 H28A       13.5944   -7.4971   14.3144 H       1  RES11       0.0898
    116 O22A       14.5372   -6.0829   13.3703 O.3     1  RES11      -0.3480
    117 C23A       15.0800   -4.7806   13.5462 C.3     1  RES11       0.0717
    118 H31A       16.8251   -5.4020   14.4232 H       1  RES11       0.0611
    119 H32A       14.3538   -4.1735   13.8030 H       1  RES11       0.0609
    120 C24A       15.6395   -4.3164   12.2110 C.3     1  RES11      -0.1101
    121 H33A       14.9300   -4.2973   11.5515 H       1  RES11       0.0100
    122 H34A       15.9918   -3.4164   12.3012 H       1  RES11       0.0100
    123 O23A       16.6513   -5.1735   11.7852 O.co2   1  RES11      -0.8541
    124 H29A       15.5800   -7.1948   15.4344 H       1  RES11       0.0151
    125 O19A       14.2324   -7.1091   16.8621 O.co2   1  RES11      -0.8507
    126 H30A       14.6705   -4.5902   16.1540 H       1  RES11       0.0128
    127 O20A       16.3942   -5.2235   16.9755 O.co2   1  RES11      -0.8522
    128 H20C       19.6487   -2.5546   15.4876 H       1  RES11       0.0151
    129 O13C       18.5798   -3.3998   16.8922 O.co2   1  RES11      -0.8507
    130 H21C       17.2132   -1.2261   16.1795 H       1  RES11       0.0128
    131 O14C       18.9345   -0.5214   16.9385 O.co2   1  RES11      -0.8522
    132 H28C       19.4011    1.6904   14.3144 H       1  RES11       0.0898
    133 O22C       17.9869    2.6332   13.3703 O.3     1  RES11      -0.3480
    134 C23C       16.6846    3.1760   13.5462 C.3     1  RES11       0.0717
    135 H31C       17.3060    4.9211   14.4232 H       1  RES11       0.0611
    136 H32C       16.0775    2.4498   13.8030 H       1  RES11       0.0609
    137 C24C       16.2204    3.7355   12.2110 C.3     1  RES11      -0.1101
    138 H33C       16.2013    3.0260   11.5515 H       1  RES11       0.0100
    139 H34C       15.3204    4.0878   12.3012 H       1  RES11       0.0100
    140 O23C       17.0775    4.7473   11.7852 O.co2   1  RES11      -0.8541
    141 H29C       19.0988    3.6760   15.4344 H       1  RES11       0.0151
    142 O19C       19.0131    2.3284   16.8621 O.co2   1  RES11      -0.8507
    143 H30C       16.4942    2.7665   16.1540 H       1  RES11       0.0128
    144 O20C       17.1275    4.4902   16.9755 O.co2   1  RES11      -0.8522
@<TRIPOS>BOND
     1     1     2    1
     2     3     1    1
     3     4     3    1
     4     5     3    1
     5     6     5    1
     6     7     5    1
     7     8     7    1
     8     9     7    1
     9    10     9    1
    10    11     9    1
    11    12    11    1
    12    13    11    1
    13    14     3    1
    14    15     5    1
    15    16     7    1
    16    17     1    1
    17    18    11    1
    18    19    16    1
    19    20    19    1
    20    21    19    1
    21    22    21    1
    22    23    21    1
    23    24    23    1
    24    25    23    1
    25    26    25    1
    26    27    25    1
    27    28    27    1
    28    29    27    1
    29    30    29    1
    30    31    29    1
    31    32    21    1
    32    33    23    1
    33    34     1    1
    34    35    19    1
    35    36    29    1
    36    37    34    1
    37    38    37    1
    38    39    38    1
    39    40    39    1
    40    41    40    1
    41    42    41    1
    42    43    42    1
    43    44    43    1
    44    45    44    1
    45    46    45    1
    46    47    45    1
    47    48    42    1
    48    49    42    1
    49    50    48    1
    50    51    48    1
    51    52    51    1
    52    53    51    1
    53    54    51    1
    54    55    45    1
    55    56    55    1
    56    57    56    1
    57    58    57    1
    58    59    58    1
    59    60    59    1
    60    61    60    1
    61    62    61    1
    62    63    62    1
    63    64    63    1
    64    65    64    1
    65    66    64    1
    66    67    61    1
    67    68    61    1
    68    69    67    1
    69    70    67    1
    70    71    70    1
    71    72    70    1
    72    73    70    1
    73    74    64    1
    74    75    74    1
    75    76    75    1
    76    77    76    1
    77    78    77    1
    78    79    78    1
    79    80    79    1
    80    81    80    1
    81    82    81    1
    82    83    82    1
    83    84    83    1
    84    85    83    1
    85    86    80    1
    86    87    80    1
    87    88    86    1
    88    89    86    1
    89    90    89    1
    90    91    89    1
    91    92    89    1
    92    93    25    1
    93    94    82    1
    94    95    82    1
    95    96    81    1
    96    97    81    1
    97    98    78    1
    98    99    78    1
    99   100    75    1
   100   101    75    1
   101   102   100    1
   102   103   100    1
   103   104   103    1
   104   105   103    1
   105   106   103    1
   106   107    77    1
   107   108    77    1
   108   109    76    1
   109   110    76    1
   110   111    63    1
   111   112    63    1
   112   113    62    1
   113   114    62    1
   114   115    59    1
   115   116    59    1
   116   117    56    1
   117   118    56    1
   118   119   117    1
   119   120   117    1
   120   121   120    1
   121   122   120    1
   122   123   120    1
   123   124    58    1
   124   125    58    1
   125   126    57    1
   126   127    57    1
   127   128    44    1
   128   129    44    1
   129   130    43    1
   130   131    43    1
   131   132    40    1
   132   133    40    1
   133   134    37    1
   134   135    37    1
   135   136   134    1
   136   137   134    1
   137   138   137    1
   138   139   137    1
   139   140   137    1
   140   141    39    1
   141   142    39    1
   142   143    38    1
   143   144    38    1
   144     9    17    1
   145    27    35    1
   146    47    48    1
   147    66    67    1
   148    83    93    1
   149    85    86    1
   150    99   100    1
   151   116   117    1
   152   133   134    1
