####################################################################### 
# 
# This file contains crystal structure data downloaded from the 
# Cambridge Structural Database (CSD) hosted by the Cambridge 
# Crystallographic Data Centre (CCDC).
# 
# Full information about CCDC data access policies and citation 
# guidelines are available at http://www.ccdc.cam.ac.uk/access/V1 
# 
# Audit and citation data items may have been added by the CCDC. 
# Please retain this information to preserve the provenance of 
# this file and to allow appropriate attribution of the data. 
# 
#######################################################################
@<TRIPOS>MOLECULE
1578448
   384   414     1     0     0
SMALL
NO_CHARGES
****
Generated from the CSD

@<TRIPOS>ATOM
     1 N1      -0.6938  17.3446  -5.7756   N.2       1 RES1   0.0000
     2 N2       2.1102  18.1824  -5.9896   N.2       1 RES1   0.0000
     3 N3       8.0519  17.3813   1.6225   N.2       1 RES1   0.0000
     4 N4       7.3300  15.6231   3.9000   N.2       1 RES1   0.0000
     5 N5       6.8359  21.0576   9.9622   N.2       1 RES1   0.0000
     6 N6       5.7360  18.3579   9.5826   N.2       1 RES1   0.0000
     7 N7      10.1555  23.2502   2.7966   N.2       1 RES1   0.0000
     8 N8       9.5114  24.6688   5.3309   N.2       1 RES1   0.0000
     9 C1       7.9340  19.7321   1.8836   C.ar      1 RES1   0.0000
    10 C2       8.6132  20.8617   2.3248   C.ar      1 RES1   0.0000
    11 H2       9.3421  20.7717   2.9287   H         1 RES1   0.0000
    12 C3       8.2280  22.1215   1.8812   C.ar      1 RES1   0.0000
    13 C4       7.1639  22.2516   0.9955   C.ar      1 RES1   0.0000
    14 H4       6.8996  23.1137   0.6922   H         1 RES1   0.0000
    15 C5       6.4851  21.1220   0.5549   C.ar      1 RES1   0.0000
    16 C6       6.8700  19.8622   0.9986   C.ar      1 RES1   0.0000
    17 H6       6.4065  19.0902   0.6978   H         1 RES1   0.0000
    18 C7       8.4560  18.3762   2.2347   C.2       1 RES1   0.0000
    19 H7       9.0974  18.2795   2.9287   H         1 RES1   0.0000
    20 C8       9.0200  23.3299   2.2942   C.2       1 RES1   0.0000
    21 H8       8.6390  24.1913   2.1659   H         1 RES1   0.0000
    22 C9       5.5656  21.2487  -0.5191   C.1       1 RES1   0.0000
    23 C10      4.8534  21.1650  -1.4737   C.1       1 RES1   0.0000
    24 C11      4.1024  21.0979  -2.7442   C.ar      1 RES1   0.0000
    25 C16      3.4849  19.9036  -3.0968   C.ar      1 RES1   0.0000
    26 H16      3.4363  19.1903  -2.4710   H         1 RES1   0.0000
    27 C15      2.9367  19.7528  -4.3652   C.ar      1 RES1   0.0000
    28 C14      3.0062  20.7960  -5.2812   C.ar      1 RES1   0.0000
    29 H14      2.6312  20.6916  -6.1478   H         1 RES1   0.0000
    30 C13      3.6243  21.9901  -4.9286   C.ar      1 RES1   0.0000
    31 C12      4.1723  22.1412  -3.6602   C.ar      1 RES1   0.0000
    32 H12      4.5940  22.9569  -3.4200   H         1 RES1   0.0000
    33 C17      2.4469  18.4533  -4.7690   C.2       1 RES1   0.0000
    34 H17      2.3673  17.7723  -4.1121   H         1 RES1   0.0000
    35 C18      6.0564  15.6798   4.0842   C.2       1 RES1   0.0000
    36 H18      5.4916  15.3969   3.3772   H         1 RES1   0.0000
    37 C19      5.4317  16.1566   5.3307   C.ar      1 RES1   0.0000
    38 C24      4.0433  16.1272   5.3914   C.ar      1 RES1   0.0000
    39 H24      3.5442  15.7873   4.6592   H         1 RES1   0.0000
    40 C23      3.3870  16.5946   6.5240   C.ar      1 RES1   0.0000
    41 C22      4.1190  17.0917   7.5961   C.ar      1 RES1   0.0000
    42 H22      3.6694  17.4120   8.3694   H         1 RES1   0.0000
    43 C21      5.5074  17.1211   7.5355   C.ar      1 RES1   0.0000
    44 C20      6.1636  16.6537   6.4027   C.ar      1 RES1   0.0000
    45 H20      7.1115  16.6747   6.3617   H         1 RES1   0.0000
    46 C25      6.2800  17.7587   8.6560   C.2       1 RES1   0.0000
    47 H25      7.2271  17.6956   8.6467   H         1 RES1   0.0000
    48 C26      1.9264  16.4115   6.6669   C.1       1 RES1   0.0000
    49 C27      0.7705  16.3277   6.9479   C.1       1 RES1   0.0000
    50 C28      5.9448  21.9230   9.4226   C.2       1 RES1   0.0000
    51 H28      5.0601  21.9494   9.7650   H         1 RES1   0.0000
    52 C31      7.8483  23.8267   6.7078   C.ar      1 RES1   0.0000
    53 C32      6.9054  24.8025   6.4075   C.ar      1 RES1   0.0000
    54 H32      7.1019  25.4725   5.7626   H         1 RES1   0.0000
    55 C33      5.6730  24.7999   7.0502   C.ar      1 RES1   0.0000
    56 C34      5.3835  23.8213   7.9936   C.ar      1 RES1   0.0000
    57 H34      4.5439  23.8177   8.4327   H         1 RES1   0.0000
    58 C29      6.3264  22.8455   8.2950   C.ar      1 RES1   0.0000
    59 C30      7.5588  22.8482   7.6512   C.ar      1 RES1   0.0000
    60 H30      8.2056  22.1796   7.8577   H         1 RES1   0.0000
    61 C35      9.1735  23.8087   6.0901   C.2       1 RES1   0.0000
    62 H35      9.7755  23.1037   6.2947   H         1 RES1   0.0000
    63 C36     10.6879  24.5306   3.2134   C.3       1 RES1   0.0000
    64 H36     10.1145  25.2790   2.8804   H         1 RES1   0.0000
    65 C37     12.1302  24.5967   2.5622   C.3       1 RES1   0.0000
    66 H37A    12.6551  23.8077   2.8431   H         1 RES1   0.0000
    67 H37B    12.0465  24.5750   1.5760   H         1 RES1   0.0000
    68 C38     12.8522  25.8518   2.9771   C.3       1 RES1   0.0000
    69 H38A    12.3489  26.6402   2.6589   H         1 RES1   0.0000
    70 H38B    13.7492  25.8695   2.5547   H         1 RES1   0.0000
    71 C39     13.0059  25.9245   4.4880   C.3       1 RES1   0.0000
    72 H39A    13.5181  26.7302   4.7504   H         1 RES1   0.0000
    73 H39B    13.4718  25.1222   4.8341   H         1 RES1   0.0000
    74 C40     11.5449  25.9963   5.0388   C.3       1 RES1   0.0000
    75 H40A    11.5514  26.1931   6.0082   H         1 RES1   0.0000
    76 H40B    11.0391  26.7136   4.5773   H         1 RES1   0.0000
    77 C41     10.8938  24.6351   4.7764   C.3       1 RES1   0.0000
    78 H41     11.4320  23.8777   5.1411   H         1 RES1   0.0000
    79 C42      6.3326  20.2419  11.0284   C.3       1 RES1   0.0000
    80 H42      5.3529  20.4013  11.1456   H         1 RES1   0.0000
    81 C43      7.0886  20.6812  12.2955   C.3       1 RES1   0.0000
    82 H43A     8.0650  20.6015  12.1485   H         1 RES1   0.0000
    83 H43B     6.8823  21.6291  12.4983   H         1 RES1   0.0000
    84 C44      6.6648  19.7931  13.4733   C.3       1 RES1   0.0000
    85 H44A     5.6958  19.9009  13.6371   H         1 RES1   0.0000
    86 H44B     7.1481  20.0744  14.2902   H         1 RES1   0.0000
    87 C45      6.9823  18.2865  13.1682   C.3       1 RES1   0.0000
    88 H45A     7.9514  18.1760  12.9914   H         1 RES1   0.0000
    89 H45B     6.7436  17.7256  13.9497   H         1 RES1   0.0000
    90 C46      6.1802  17.8501  11.9513   C.3       1 RES1   0.0000
    91 H46A     5.2104  17.9325  12.1373   H         1 RES1   0.0000
    92 H46B     6.3738  16.9049  11.7392   H         1 RES1   0.0000
    93 C47      6.5822  18.7846  10.7120   C.3       1 RES1   0.0000
    94 H47      7.5488  18.6464  10.4850   H         1 RES1   0.0000
    95 C48      7.8591  15.1003   2.6422   C.3       1 RES1   0.0000
    96 H48      7.0846  15.0132   2.0170   H         1 RES1   0.0000
    97 C49      8.4179  13.6580   2.8729   C.3       1 RES1   0.0000
    98 H49A     9.0551  13.6687   3.6302   H         1 RES1   0.0000
    99 H49B     7.6701  13.0515   3.1074   H         1 RES1   0.0000
   100 C50      9.1360  13.1282   1.6002   C.3       1 RES1   0.0000
   101 H50A     9.6560  12.3142   1.8235   H         1 RES1   0.0000
   102 H50B     8.4656  12.8880   0.9136   H         1 RES1   0.0000
   103 C51     10.0453  14.1715   1.0662   C.3       1 RES1   0.0000
   104 H51A    10.4747  13.8189   0.2475   H         1 RES1   0.0000
   105 H51B    10.7598  14.3326   1.7323   H         1 RES1   0.0000
   106 C52      9.4153  15.4736   0.7350   C.3       1 RES1   0.0000
   107 H52A     8.7122  15.3435   0.0540   H         1 RES1   0.0000
   108 H52B    10.0933  16.0942   0.3684   H         1 RES1   0.0000
   109 C53      8.8022  16.0672   2.0263   C.3       1 RES1   0.0000
   110 H53      9.5328  16.2844   2.6757   H         1 RES1   0.0000
   111 C54      1.6334  16.8942  -6.2761   C.3       1 RES1   0.0000
   112 H54      1.6604  16.4011  -5.4072   H         1 RES1   0.0000
   113 C55      2.6196  16.1115  -7.2418   C.3       1 RES1   0.0000
   114 H55A     2.7275  16.6280  -8.0792   H         1 RES1   0.0000
   115 H55B     3.5076  16.0442  -6.8102   H         1 RES1   0.0000
   116 C56      2.1098  14.6820  -7.5861   C.3       1 RES1   0.0000
   117 H56A     2.1535  14.1191  -6.7729   H         1 RES1   0.0000
   118 H56B     2.7121  14.2793  -8.2615   H         1 RES1   0.0000
   119 C57      0.6293  14.6706  -8.1461   C.3       1 RES1   0.0000
   120 H57A     0.6279  15.0533  -9.0579   H         1 RES1   0.0000
   121 H57B     0.3159  13.7321  -8.2094   H         1 RES1   0.0000
   122 C58     -0.3475  15.4643  -7.2679   C.3       1 RES1   0.0000
   123 H58A    -0.6010  14.8998  -6.4938   H         1 RES1   0.0000
   124 H58B    -1.1692  15.6371  -7.7908   H         1 RES1   0.0000
   125 C59      0.1953  16.8409  -6.7208   C.3       1 RES1   0.0000
   126 H59      0.1387  17.4687  -7.4968   H         1 RES1   0.0000
   127 C60     -1.1709  18.5053  -5.9114   C.2       1 RES1   0.0000
   128 H60     -0.9631  18.9634  -6.7171   H         1 RES1   0.0000
   129 N1       4.5880  24.0896  -5.7756   N.2       1 RES1   0.0000
   130 N2       2.4605  26.0990  -5.9896   N.2       1 RES1   0.0000
   131 N3       0.1834  31.6452   1.6225   N.2       1 RES1   0.0000
   132 N4       2.0670  31.8991   3.9000   N.2       1 RES1   0.0000
   133 N5      -2.3923  28.7540   9.9622   N.2       1 RES1   0.0000
   134 N6       0.4956  29.1514   9.5826   N.2       1 RES1   0.0000
   135 N7      -5.9510  30.5326   2.7966   N.2       1 RES1   0.0000
   136 N8      -6.8575  29.2655   5.3309   N.2       1 RES1   0.0000
   137 C1      -1.7935  30.3678   1.8836   C.ar      1 RES1   0.0000
   138 C2      -3.1114  30.3911   2.3248   C.ar      1 RES1   0.0000
   139 H2      -3.3978  31.0674   2.9287   H         1 RES1   0.0000
   140 C3      -4.0098  29.4276   1.8812   C.ar      1 RES1   0.0000
   141 C4      -3.5904  28.4411   0.9955   C.ar      1 RES1   0.0000
   142 H4      -4.2049  27.7812   0.6922   H         1 RES1   0.0000
   143 C5      -2.2727  28.4181   0.5549   C.ar      1 RES1   0.0000
   144 C6      -1.3742  29.3813   0.9986   C.ar      1 RES1   0.0000
   145 H6      -0.4738  29.3659   0.6978   H         1 RES1   0.0000
   146 C7      -0.8803  31.4978   2.2347   C.2       1 RES1   0.0000
   147 H7      -1.1172  32.1017   2.9287   H         1 RES1   0.0000
   148 C8      -5.4523  29.5094   2.2942   C.2       1 RES1   0.0000
   149 H8      -6.0078  28.7487   2.1659   H         1 RES1   0.0000
   150 C9      -1.9227  27.5583  -0.5191   C.1       1 RES1   0.0000
   151 C10     -1.4942  26.9835  -1.4737   C.1       1 RES1   0.0000
   152 C11     -1.0606  26.3666  -2.7442   C.ar      1 RES1   0.0000
   153 C16      0.2826  26.4290  -3.0968   C.ar      1 RES1   0.0000
   154 H16      0.9246  26.7436  -2.4710   H         1 RES1   0.0000
   155 C15      0.6873  26.0296  -4.3652   C.ar      1 RES1   0.0000
   156 C14     -0.2510  25.5682  -5.2812   C.ar      1 RES1   0.0000
   157 H14      0.0270  25.2956  -6.1478   H         1 RES1   0.0000
   158 C13     -1.5941  25.5065  -4.9286   C.ar      1 RES1   0.0000
   159 C12     -1.9990  25.9055  -3.6602   C.ar      1 RES1   0.0000
   160 H12     -2.9163  25.8628  -3.4200   H         1 RES1   0.0000
   161 C17      2.0576  26.2552  -4.7690   C.2       1 RES1   0.0000
   162 H17      2.6870  26.5267  -4.1121   H         1 RES1   0.0000
   163 C18      2.6547  30.7678   4.0842   C.2       1 RES1   0.0000
   164 H18      3.1821  30.4202   3.3772   H         1 RES1   0.0000
   165 C19      2.5541  29.9885   5.3307   C.ar      1 RES1   0.0000
   166 C24      3.2738  28.8007   5.3914   C.ar      1 RES1   0.0000
   167 H24      3.8177  28.5385   4.6592   H         1 RES1   0.0000
   168 C23      3.1971  27.9987   6.5240   C.ar      1 RES1   0.0000
   169 C22      2.4006  28.3840   7.5961   C.ar      1 RES1   0.0000
   170 H22      2.3480  27.8346   8.3694   H         1 RES1   0.0000
   171 C21      1.6810  29.5718   7.5355   C.ar      1 RES1   0.0000
   172 C20      1.7577  30.3738   6.4027   C.ar      1 RES1   0.0000
   173 H20      1.2655  31.1842   6.3617   H         1 RES1   0.0000
   174 C25      0.7426  29.9221   8.6560   C.2       1 RES1   0.0000
   175 H25      0.3236  30.7738   8.6467   H         1 RES1   0.0000
   176 C26      4.0860  26.8253   6.6669   C.1       1 RES1   0.0000
   177 C27      4.7365  25.8661   6.9479   C.1       1 RES1   0.0000
   178 C28     -2.6963  27.5496   9.4226   C.2       1 RES1   0.0000
   179 H28     -2.2768  26.7703   9.7650   H         1 RES1   0.0000
   180 C31     -5.2967  28.2462   6.7078   C.ar      1 RES1   0.0000
   181 C32     -5.6703  26.9418   6.4075   C.ar      1 RES1   0.0000
   182 H32     -6.3488  26.7770   5.7626   H         1 RES1   0.0000
   183 C33     -5.0518  25.8758   7.0502   C.ar      1 RES1   0.0000
   184 C34     -4.0597  26.1144   7.9936   C.ar      1 RES1   0.0000
   185 H34     -3.6367  25.3891   8.4327   H         1 RES1   0.0000
   186 C29     -3.6860  27.4189   8.2950   C.ar      1 RES1   0.0000
   187 C30     -4.3045  28.4848   7.6512   C.ar      1 RES1   0.0000
   188 H30     -4.0489  29.3792   7.8577   H         1 RES1   0.0000
   189 C35     -5.9437  29.4029   6.0901   C.2       1 RES1   0.0000
   190 H35     -5.6341  30.2767   6.2947   H         1 RES1   0.0000
   191 C36     -7.3261  30.3534   3.2134   C.3       1 RES1   0.0000
   192 H36     -7.6875  29.4827   2.8804   H         1 RES1   0.0000
   193 C37     -8.1045  31.5695   2.5622   C.3       1 RES1   0.0000
   194 H37A    -7.6836  32.4186   2.8431   H         1 RES1   0.0000
   195 H37B    -8.0438  31.5078   1.5760   H         1 RES1   0.0000
   196 C38     -9.5524  31.5672   2.9771   C.3       1 RES1   0.0000
   197 H38A    -9.9835  30.7371   2.6589   H         1 RES1   0.0000
   198 H38B   -10.0162  32.3352   2.5547   H         1 RES1   0.0000
   199 C39     -9.6923  31.6639   4.4880   C.3       1 RES1   0.0000
   200 H39A   -10.6461  31.7046   4.7504   H         1 RES1   0.0000
   201 H39B    -9.2304  32.4686   4.8341   H         1 RES1   0.0000
   202 C40     -9.0239  30.3628   5.0388   C.3       1 RES1   0.0000
   203 H40A    -9.1976  30.2700   6.0082   H         1 RES1   0.0000
   204 H40B    -9.3922  29.5661   4.5773   H         1 RES1   0.0000
   205 C41     -7.5195  30.4796   4.7764   C.3       1 RES1   0.0000
   206 H41     -7.1327  31.3243   5.1411   H         1 RES1   0.0000
   207 C42     -1.4342  28.7260  11.0284   C.3       1 RES1   0.0000
   208 H42     -1.0825  27.7979  11.1456   H         1 RES1   0.0000
   209 C43     -2.1928  29.1611  12.2955   C.3       1 RES1   0.0000
   210 H43A    -2.6119  30.0465  12.1485   H         1 RES1   0.0000
   211 H43B    -2.9105  28.5085  12.4983   H         1 RES1   0.0000
   212 C44     -1.2118  29.2381  13.4733   C.3       1 RES1   0.0000
   213 H44A    -0.8206  28.3450  13.6371   H         1 RES1   0.0000
   214 H44B    -1.6970  29.5160  14.2902   H         1 RES1   0.0000
   215 C45     -0.0657  30.2664  13.1682   C.3       1 RES1   0.0000
   216 H45A    -0.4546  31.1608  12.9914   H         1 RES1   0.0000
   217 H45B     0.5393  30.3401  13.9497   H         1 RES1   0.0000
   218 C46      0.7133  29.7899  11.9513   C.3       1 RES1   0.0000
   219 H46A     1.1268  28.9088  12.1373   H         1 RES1   0.0000
   220 H46B     1.4350  30.4302  11.7392   H         1 RES1   0.0000
   221 C47     -0.2970  29.6708  10.7120   C.3       1 RES1   0.0000
   222 H47     -0.6607  30.5770  10.4850   H         1 RES1   0.0000
   223 C48      2.2552  32.6188   2.6422   C.3       1 RES1   0.0000
   224 H48      2.7179  31.9916   2.0170   H         1 RES1   0.0000
   225 C49      3.2248  33.8238   2.8729   C.3       1 RES1   0.0000
   226 H49A     2.8970  34.3703   3.6302   H         1 RES1   0.0000
   227 H49B     4.1240  33.4795   3.1074   H         1 RES1   0.0000
   228 C50      3.3246  34.7106   1.6002   C.3       1 RES1   0.0000
   229 H50A     3.7696  35.5680   1.8235   H         1 RES1   0.0000
   230 H50B     3.8678  34.2502   0.9136   H         1 RES1   0.0000
   231 C51      1.9665  34.9765   1.0662   C.3       1 RES1   0.0000
   232 H51A     2.0572  35.5247   0.2475   H         1 RES1   0.0000
   233 H51B     1.4697  35.5147   1.7323   H         1 RES1   0.0000
   234 C52      1.1538  33.7798   0.7350   C.3       1 RES1   0.0000
   235 H52A     1.6180  33.2360   0.0540   H         1 RES1   0.0000
   236 H52B     0.2774  34.0567   0.3684   H         1 RES1   0.0000
   237 C53      0.9463  32.9521   2.0263   C.3       1 RES1   0.0000
   238 H53      0.3929  33.4762   2.6757   H         1 RES1   0.0000
   239 C54      3.8145  26.3302  -6.2761   C.3       1 RES1   0.0000
   240 H54      4.2280  26.6001  -5.4072   H         1 RES1   0.0000
   241 C55      3.9992  27.5757  -7.2418   C.3       1 RES1   0.0000
   242 H55A     3.4980  27.4108  -8.0792   H         1 RES1   0.0000
   243 H55B     3.6136  28.3784  -6.8102   H         1 RES1   0.0000
   244 C56      5.4922  27.8489  -7.5861   C.3       1 RES1   0.0000
   245 H56A     5.9577  28.1682  -6.7729   H         1 RES1   0.0000
   246 H56B     5.5398  28.5719  -8.2615   H         1 RES1   0.0000
   247 C57      6.2422  26.5724  -8.1461   C.3       1 RES1   0.0000
   248 H57A     5.9115  26.3799  -9.0579   H         1 RES1   0.0000
   249 H57B     7.2117  26.7703  -8.2094   H         1 RES1   0.0000
   250 C58      6.0433  25.3297  -7.2679   C.3       1 RES1   0.0000
   251 H58A     6.6589  25.3924  -6.4938   H         1 RES1   0.0000
   252 H58B     6.3045  24.5316  -7.7908   H         1 RES1   0.0000
   253 C59      4.5797  25.1115  -6.7208   C.3       1 RES1   0.0000
   254 H59      4.0643  24.7485  -7.4968   H         1 RES1   0.0000
   255 C60      3.8214  23.0960  -5.9114   C.2       1 RES1   0.0000
   256 H60      3.3208  23.0470  -6.7171   H         1 RES1   0.0000
   257 N1      -3.8942  25.2913  -5.7756   N.2       1 RES1   0.0000
   258 N2      -4.5707  22.4441  -5.9896   N.2       1 RES1   0.0000
   259 N3      -8.2353  17.6989   1.6225   N.2       1 RES1   0.0000
   260 N4      -9.3970  19.2033   3.9000   N.2       1 RES1   0.0000
   261 N5      -4.4436  16.9139   9.9622   N.2       1 RES1   0.0000
   262 N6      -6.2316  19.2163   9.5826   N.2       1 RES1   0.0000
   263 N7      -4.2045  12.9428   2.7966   N.2       1 RES1   0.0000
   264 N8      -2.6539  12.7913   5.3309   N.2       1 RES1   0.0000
   265 C1      -6.1405  16.6257   1.8836   C.ar      1 RES1   0.0000
   266 C2      -5.5018  15.4726   2.3248   C.ar      1 RES1   0.0000
   267 H2      -5.9443  14.8865   2.9287   H         1 RES1   0.0000
   268 C3      -4.2182  15.1764   1.8812   C.ar      1 RES1   0.0000
   269 C4      -3.5735  16.0328   0.9955   C.ar      1 RES1   0.0000
   270 H4      -2.6948  15.8306   0.6922   H         1 RES1   0.0000
   271 C5      -4.2124  17.1855   0.5549   C.ar      1 RES1   0.0000
   272 C6      -5.4958  17.4821   0.9986   C.ar      1 RES1   0.0000
   273 H6      -5.9327  18.2694   0.6978   H         1 RES1   0.0000
   274 C7      -7.5757  16.8515   2.2347   C.2       1 RES1   0.0000
   275 H7      -7.9802  16.3444   2.9287   H         1 RES1   0.0000
   276 C8      -3.5677  13.8862   2.2942   C.2       1 RES1   0.0000
   277 H8      -2.6312  13.7855   2.1659   H         1 RES1   0.0000
   278 C9      -3.6428  17.9185  -0.5191   C.1       1 RES1   0.0000
   279 C10     -3.3593  18.5771  -1.4737   C.1       1 RES1   0.0000
   280 C11     -3.0419  19.2610  -2.7442   C.ar      1 RES1   0.0000
   281 C16     -3.7675  20.3930  -3.0968   C.ar      1 RES1   0.0000
   282 H16     -4.3609  20.7917  -2.4710   H         1 RES1   0.0000
   283 C15     -3.6240  20.9431  -4.3652   C.ar      1 RES1   0.0000
   284 C14     -2.7552  20.3613  -5.2812   C.ar      1 RES1   0.0000
   285 H14     -2.6582  20.7383  -6.1478   H         1 RES1   0.0000
   286 C13     -2.0302  19.2290  -4.9286   C.ar      1 RES1   0.0000
   287 C12     -2.1733  18.6788  -3.6602   C.ar      1 RES1   0.0000
   288 H12     -1.6777  17.9058  -3.4200   H         1 RES1   0.0000
   289 C17     -4.5044  22.0171  -4.7690   C.2       1 RES1   0.0000
   290 H17     -5.0543  22.4264  -4.1121   H         1 RES1   0.0000
   291 C18     -8.7110  20.2779   4.0842   C.2       1 RES1   0.0000
   292 H18     -8.6737  20.9084   3.3772   H         1 RES1   0.0000
   293 C19     -7.9858  20.5805   5.3307   C.ar      1 RES1   0.0000
   294 C24     -7.3171  21.7976   5.3914   C.ar      1 RES1   0.0000
   295 H24     -7.3619  22.3998   4.6592   H         1 RES1   0.0000
   296 C23     -6.5841  22.1322   6.5240   C.ar      1 RES1   0.0000
   297 C22     -6.5196  21.2497   7.5961   C.ar      1 RES1   0.0000
   298 H22     -6.0174  21.4789   8.3694   H         1 RES1   0.0000
   299 C21     -7.1884  20.0327   7.5355   C.ar      1 RES1   0.0000
   300 C20     -7.9213  19.6980   6.4027   C.ar      1 RES1   0.0000
   301 H20     -8.3770  18.8666   6.3617   H         1 RES1   0.0000
   302 C25     -7.0225  19.0448   8.6560   C.2       1 RES1   0.0000
   303 H25     -7.5507  18.2561   8.6467   H         1 RES1   0.0000
   304 C26     -6.0124  23.4887   6.6669   C.1       1 RES1   0.0000
   305 C27     -5.5070  24.5316   6.9479   C.1       1 RES1   0.0000
   306 C28     -3.2485  17.2529   9.4226   C.2       1 RES1   0.0000
   307 H28     -2.7834  18.0059   9.7650   H         1 RES1   0.0000
   308 C31     -2.5516  14.6526   6.7078   C.ar      1 RES1   0.0000
   309 C32     -1.2351  14.9812   6.4075   C.ar      1 RES1   0.0000
   310 H32     -0.7531  14.4761   5.7626   H         1 RES1   0.0000
   311 C33     -0.6212  16.0498   7.0502   C.ar      1 RES1   0.0000
   312 C34     -1.3239  16.7898   7.9936   C.ar      1 RES1   0.0000
   313 H34     -0.9072  17.5188   8.4327   H         1 RES1   0.0000
   314 C29     -2.6404  16.4612   8.2950   C.ar      1 RES1   0.0000
   315 C30     -3.2543  15.3926   7.6512   C.ar      1 RES1   0.0000
   316 H30     -4.1567  15.1667   7.8577   H         1 RES1   0.0000
   317 C35     -3.2299  13.5139   6.0901   C.2       1 RES1   0.0000
   318 H35     -4.1413  13.3451   6.2947   H         1 RES1   0.0000
   319 C36     -3.3618  11.8414   3.2134   C.3       1 RES1   0.0000
   320 H36     -2.4270  11.9639   2.8804   H         1 RES1   0.0000
   321 C37     -4.0258  10.5593   2.5622   C.3       1 RES1   0.0000
   322 H37A    -4.9715  10.4993   2.8431   H         1 RES1   0.0000
   323 H37B    -4.0026  10.6427   1.5760   H         1 RES1   0.0000
   324 C38     -3.2998   9.3065   2.9771   C.3       1 RES1   0.0000
   325 H38A    -2.3654   9.3482   2.6589   H         1 RES1   0.0000
   326 H38B    -3.7330   8.5208   2.5547   H         1 RES1   0.0000
   327 C39     -3.3136   9.1371   4.4880   C.3       1 RES1   0.0000
   328 H39A    -2.8720   8.2906   4.7504   H         1 RES1   0.0000
   329 H39B    -4.2415   9.1347   4.8341   H         1 RES1   0.0000
   330 C40     -2.5210  10.3665   5.0388   C.3       1 RES1   0.0000
   331 H40A    -2.3538  10.2624   6.0082   H         1 RES1   0.0000
   332 H40B    -1.6469  10.4459   4.5773   H         1 RES1   0.0000
   333 C41     -3.3743  11.6109   4.7764   C.3       1 RES1   0.0000
   334 H41     -4.2993  11.5235   5.1411   H         1 RES1   0.0000
   335 C42     -4.8983  17.7577  11.0284   C.3       1 RES1   0.0000
   336 H42     -4.2704  18.5263  11.1456   H         1 RES1   0.0000
   337 C43     -4.8958  16.8832  12.2955   C.3       1 RES1   0.0000
   338 H43A    -5.4531  16.0775  12.1485   H         1 RES1   0.0000
   339 H43B    -3.9718  16.5880  12.4983   H         1 RES1   0.0000
   340 C44     -5.4531  17.6943  13.4733   C.3       1 RES1   0.0000
   341 H44A    -4.8752  18.4796  13.6371   H         1 RES1   0.0000
   342 H44B    -5.4511  17.1351  14.2902   H         1 RES1   0.0000
   343 C45     -6.9166  18.1727  13.1682   C.3       1 RES1   0.0000
   344 H45A    -7.4968  17.3887  12.9914   H         1 RES1   0.0000
   345 H45B    -7.2830  18.6598  13.9497   H         1 RES1   0.0000
   346 C46     -6.8935  19.0855  11.9513   C.3       1 RES1   0.0000
   347 H46A    -6.3372  19.8842  12.1373   H         1 RES1   0.0000
   348 H46B    -7.8088  19.3904  11.7392   H         1 RES1   0.0000
   349 C47     -6.2852  18.2701  10.7120   C.3       1 RES1   0.0000
   350 H47     -6.8881  17.5021  10.4850   H         1 RES1   0.0000
   351 C48    -10.1143  19.0064   2.6422   C.3       1 RES1   0.0000
   352 H48     -9.8024  19.7207   2.0170   H         1 RES1   0.0000
   353 C49    -11.6427  19.2436   2.8729   C.3       1 RES1   0.0000
   354 H49A   -11.9521  18.6865   3.6302   H         1 RES1   0.0000
   355 H49B   -11.7941  20.1945   3.1074   H         1 RES1   0.0000
   356 C50    -12.4606  18.8867   1.6002   C.3       1 RES1   0.0000
   357 H50A   -13.4256  18.8433   1.8235   H         1 RES1   0.0000
   358 H50B   -12.3335  19.5873   0.9136   H         1 RES1   0.0000
   359 C51    -12.0118  17.5775   1.0662   C.3       1 RES1   0.0000
   360 H51A   -12.5319  17.3820   0.2475   H         1 RES1   0.0000
   361 H51B   -12.2294  16.8782   1.7323   H         1 RES1   0.0000
   362 C52    -10.5691  17.4721   0.7350   C.3       1 RES1   0.0000
   363 H52A   -10.3302  18.1460   0.0540   H         1 RES1   0.0000
   364 H52B   -10.3707  16.5746   0.3684   H         1 RES1   0.0000
   365 C53     -9.7485  17.7063   2.0263   C.3       1 RES1   0.0000
   366 H53     -9.9257  16.9650   2.6757   H         1 RES1   0.0000
   367 C54     -5.4479  23.5011  -6.2761   C.3       1 RES1   0.0000
   368 H54     -5.8884  23.7243  -5.4072   H         1 RES1   0.0000
   369 C55     -6.6188  23.0383  -7.2418   C.3       1 RES1   0.0000
   370 H55A    -6.2255  22.6867  -8.0792   H         1 RES1   0.0000
   371 H55B    -7.1212  22.3030  -6.8102   H         1 RES1   0.0000
   372 C56     -7.6019  24.1947  -7.5861   C.3       1 RES1   0.0000
   373 H56A    -8.1112  24.4382  -6.7729   H         1 RES1   0.0000
   374 H56B    -8.2518  23.8744  -8.2615   H         1 RES1   0.0000
   375 C57     -6.8715  25.4825  -8.1461   C.3       1 RES1   0.0000
   376 H57A    -6.5394  25.2923  -9.0579   H         1 RES1   0.0000
   377 H57B    -7.5276  26.2231  -8.2094   H         1 RES1   0.0000
   378 C58     -5.6958  25.9315  -7.2679   C.3       1 RES1   0.0000
   379 H58A    -6.0579  26.4333  -6.4938   H         1 RES1   0.0000
   380 H58B    -5.1352  26.5568  -7.7908   H         1 RES1   0.0000
   381 C59     -4.7750  24.7732  -6.7208   C.3       1 RES1   0.0000
   382 H59     -4.2030  24.5083  -7.4968   H         1 RES1   0.0000
   383 C60     -2.6505  25.1242  -5.9114   C.2       1 RES1   0.0000
   384 H60     -2.3577  24.7151  -6.7171   H         1 RES1   0.0000
@<TRIPOS>BOND
     1     1   125    1
     2     1   127    2
     3     2    33    2
     4     2   111    1
     5     3    18    2
     6     3   109    1
     7     4    35    2
     8     4    95    1
     9     5    50    2
    10     5    79    1
    11     6    46    2
    12     6    93    1
    13     7    20    2
    14     7    63    1
    15     8    61    2
    16     8    77    1
    17     9    10   ar
    18     9    16   ar
    19     9    18    1
    20    10    11    1
    21    10    12   ar
    22    12    13   ar
    23    12    20    1
    24    13    14    1
    25    13    15   ar
    26    15    16   ar
    27    15    22    1
    28    16    17    1
    29    18    19    1
    30    20    21    1
    31    22    23    3
    32    23    24    1
    33    24    25   ar
    34    24    31   ar
    35    25    26    1
    36    25    27   ar
    37    27    28   ar
    38    27    33    1
    39    28    29    1
    40    28    30   ar
    41    30    31   ar
    42    30   255    1
    43    31    32    1
    44    33    34    1
    45    35    36    1
    46    35    37    1
    47    37    38   ar
    48    37    44   ar
    49    38    39    1
    50    38    40   ar
    51    40    41   ar
    52    40    48    1
    53    41    42    1
    54    41    43   ar
    55    43    44   ar
    56    43    46    1
    57    44    45    1
    58    46    47    1
    59    48    49    3
    60    49   311    1
    61    50    51    1
    62    50    58    1
    63    52    53   ar
    64    52    59   ar
    65    52    61    1
    66    53    54    1
    67    53    55   ar
    68    55    56   ar
    69    55   177    1
    70    56    57    1
    71    56    58   ar
    72    58    59   ar
    73    59    60    1
    74    61    62    1
    75    63    64    1
    76    63    65    1
    77    63    77    1
    78    65    66    1
    79    65    67    1
    80    65    68    1
    81    68    69    1
    82    68    70    1
    83    68    71    1
    84    71    72    1
    85    71    73    1
    86    71    74    1
    87    74    75    1
    88    74    76    1
    89    74    77    1
    90    77    78    1
    91    79    80    1
    92    79    81    1
    93    79    93    1
    94    81    82    1
    95    81    83    1
    96    81    84    1
    97    84    85    1
    98    84    86    1
    99    84    87    1
   100    87    88    1
   101    87    89    1
   102    87    90    1
   103    90    91    1
   104    90    92    1
   105    90    93    1
   106    93    94    1
   107    95    96    1
   108    95    97    1
   109    95   109    1
   110    97    98    1
   111    97    99    1
   112    97   100    1
   113   100   101    1
   114   100   102    1
   115   100   103    1
   116   103   104    1
   117   103   105    1
   118   103   106    1
   119   106   107    1
   120   106   108    1
   121   106   109    1
   122   109   110    1
   123   111   112    1
   124   111   113    1
   125   111   125    1
   126   113   114    1
   127   113   115    1
   128   113   116    1
   129   116   117    1
   130   116   118    1
   131   116   119    1
   132   119   120    1
   133   119   121    1
   134   119   122    1
   135   122   123    1
   136   122   124    1
   137   122   125    1
   138   125   126    1
   139   127   128    1
   140   127   286    1
   141   129   253    1
   142   129   255    2
   143   130   161    2
   144   130   239    1
   145   131   146    2
   146   131   237    1
   147   132   163    2
   148   132   223    1
   149   133   178    2
   150   133   207    1
   151   134   174    2
   152   134   221    1
   153   135   148    2
   154   135   191    1
   155   136   189    2
   156   136   205    1
   157   137   138   ar
   158   137   144   ar
   159   137   146    1
   160   138   139    1
   161   138   140   ar
   162   140   141   ar
   163   140   148    1
   164   141   142    1
   165   141   143   ar
   166   143   144   ar
   167   143   150    1
   168   144   145    1
   169   146   147    1
   170   148   149    1
   171   150   151    3
   172   151   152    1
   173   152   153   ar
   174   152   159   ar
   175   153   154    1
   176   153   155   ar
   177   155   156   ar
   178   155   161    1
   179   156   157    1
   180   156   158   ar
   181   158   159   ar
   182   158   383    1
   183   159   160    1
   184   161   162    1
   185   163   164    1
   186   163   165    1
   187   165   166   ar
   188   165   172   ar
   189   166   167    1
   190   166   168   ar
   191   168   169   ar
   192   168   176    1
   193   169   170    1
   194   169   171   ar
   195   171   172   ar
   196   171   174    1
   197   172   173    1
   198   174   175    1
   199   176   177    3
   200   178   179    1
   201   178   186    1
   202   180   181   ar
   203   180   187   ar
   204   180   189    1
   205   181   182    1
   206   181   183   ar
   207   183   184   ar
   208   183   305    1
   209   184   185    1
   210   184   186   ar
   211   186   187   ar
   212   187   188    1
   213   189   190    1
   214   191   192    1
   215   191   193    1
   216   191   205    1
   217   193   194    1
   218   193   195    1
   219   193   196    1
   220   196   197    1
   221   196   198    1
   222   196   199    1
   223   199   200    1
   224   199   201    1
   225   199   202    1
   226   202   203    1
   227   202   204    1
   228   202   205    1
   229   205   206    1
   230   207   208    1
   231   207   209    1
   232   207   221    1
   233   209   210    1
   234   209   211    1
   235   209   212    1
   236   212   213    1
   237   212   214    1
   238   212   215    1
   239   215   216    1
   240   215   217    1
   241   215   218    1
   242   218   219    1
   243   218   220    1
   244   218   221    1
   245   221   222    1
   246   223   224    1
   247   223   225    1
   248   223   237    1
   249   225   226    1
   250   225   227    1
   251   225   228    1
   252   228   229    1
   253   228   230    1
   254   228   231    1
   255   231   232    1
   256   231   233    1
   257   231   234    1
   258   234   235    1
   259   234   236    1
   260   234   237    1
   261   237   238    1
   262   239   240    1
   263   239   241    1
   264   239   253    1
   265   241   242    1
   266   241   243    1
   267   241   244    1
   268   244   245    1
   269   244   246    1
   270   244   247    1
   271   247   248    1
   272   247   249    1
   273   247   250    1
   274   250   251    1
   275   250   252    1
   276   250   253    1
   277   253   254    1
   278   255   256    1
   279   257   381    1
   280   257   383    2
   281   258   289    2
   282   258   367    1
   283   259   274    2
   284   259   365    1
   285   260   291    2
   286   260   351    1
   287   261   306    2
   288   261   335    1
   289   262   302    2
   290   262   349    1
   291   263   276    2
   292   263   319    1
   293   264   317    2
   294   264   333    1
   295   265   266   ar
   296   265   272   ar
   297   265   274    1
   298   266   267    1
   299   266   268   ar
   300   268   269   ar
   301   268   276    1
   302   269   270    1
   303   269   271   ar
   304   271   272   ar
   305   271   278    1
   306   272   273    1
   307   274   275    1
   308   276   277    1
   309   278   279    3
   310   279   280    1
   311   280   281   ar
   312   280   287   ar
   313   281   282    1
   314   281   283   ar
   315   283   284   ar
   316   283   289    1
   317   284   285    1
   318   284   286   ar
   319   286   287   ar
   320   287   288    1
   321   289   290    1
   322   291   292    1
   323   291   293    1
   324   293   294   ar
   325   293   300   ar
   326   294   295    1
   327   294   296   ar
   328   296   297   ar
   329   296   304    1
   330   297   298    1
   331   297   299   ar
   332   299   300   ar
   333   299   302    1
   334   300   301    1
   335   302   303    1
   336   304   305    3
   337   306   307    1
   338   306   314    1
   339   308   309   ar
   340   308   315   ar
   341   308   317    1
   342   309   310    1
   343   309   311   ar
   344   311   312   ar
   345   312   313    1
   346   312   314   ar
   347   314   315   ar
   348   315   316    1
   349   317   318    1
   350   319   320    1
   351   319   321    1
   352   319   333    1
   353   321   322    1
   354   321   323    1
   355   321   324    1
   356   324   325    1
   357   324   326    1
   358   324   327    1
   359   327   328    1
   360   327   329    1
   361   327   330    1
   362   330   331    1
   363   330   332    1
   364   330   333    1
   365   333   334    1
   366   335   336    1
   367   335   337    1
   368   335   349    1
   369   337   338    1
   370   337   339    1
   371   337   340    1
   372   340   341    1
   373   340   342    1
   374   340   343    1
   375   343   344    1
   376   343   345    1
   377   343   346    1
   378   346   347    1
   379   346   348    1
   380   346   349    1
   381   349   350    1
   382   351   352    1
   383   351   353    1
   384   351   365    1
   385   353   354    1
   386   353   355    1
   387   353   356    1
   388   356   357    1
   389   356   358    1
   390   356   359    1
   391   359   360    1
   392   359   361    1
   393   359   362    1
   394   362   363    1
   395   362   364    1
   396   362   365    1
   397   365   366    1
   398   367   368    1
   399   367   369    1
   400   367   381    1
   401   369   370    1
   402   369   371    1
   403   369   372    1
   404   372   373    1
   405   372   374    1
   406   372   375    1
   407   375   376    1
   408   375   377    1
   409   375   378    1
   410   378   379    1
   411   378   380    1
   412   378   381    1
   413   381   382    1
   414   383   384    1
@<TRIPOS>SUBSTRUCTURE
     1 RES1        1 GROUP             0 ****  ****    0  
@<TRIPOS>CRYSIN
   38.5240   38.5240   18.6070   90.0000   90.0000  120.0000   232     1
 

