@<TRIPOS>MOLECULE
*****
 304 332 0 0 0
SMALL
GASTEIGER

@<TRIPOS>ATOM
      1 O1          3.1435    4.6897    1.2929 O.3     3  RES33      -0.4522
      2 C1          1.7924    4.6405    1.5352 C.3     3  RES33       0.2333
      3 H1          1.3746    5.2774    0.9334 H       3  RES33       0.1166
      4 H2          1.4883    3.7599    1.2631 H       3  RES33       0.1166
      5 O2          1.2848    4.8699    2.7645 O.3     3  RES33      -0.4522
      6 C2          1.2690    3.7927    3.6364 C.ar    3  RES33       0.1735
      7 C3          2.3777    3.3196    4.3394 C.ar    3  RES33       0.0061
      8 C4          2.2220    2.3182    5.2967 C.ar    3  RES33      -0.0470
      9 H3          2.9617    2.0049    5.7654 H       3  RES33       0.0626
     10 C5          0.9573    1.7878    5.5529 C.ar    3  RES33       0.0061
     11 C6         -0.1518    2.2609    4.8518 C.ar    3  RES33       0.1735
     12 C7          0.0042    3.2623    3.8926 C.ar    3  RES33       0.2047
     13 O3         -1.0289    3.6002    3.0287 O.3     3  RES33      -0.4852
     14 C8         -2.1849    4.0938    3.7536 C.3     3  RES33       0.0900
     15 H4         -1.9453    4.9211    4.2004 H       3  RES33       0.0696
     16 H5         -2.4282    3.4487    4.4348 H       3  RES33       0.0696
     17 C9         -3.3912    4.3415    2.8539 C.3     3  RES33      -0.0156
     18 H6         -3.7589    3.4958    2.5719 H       3  RES33       0.0299
     19 H7         -4.0817    4.7982    3.3782 H       3  RES33       0.0299
     20 C10        -3.1205    5.1812    1.6404 C.3     3  RES33      -0.0156
     21 H8         -2.1644    5.1628    1.4478 H       3  RES33       0.0299
     22 H9         -3.3838    6.0925    1.7934 H       3  RES33       0.0299
     23 C11        -3.8791    4.5996    0.4766 C.3     3  RES33       0.0900
     24 H10        -4.8363    4.6999    0.6256 H       3  RES33       0.0696
     25 H11        -3.6587    5.0849   -0.3376 H       3  RES33       0.0696
     26 O4         -3.5649    3.1927    0.2999 O.3     3  RES33      -0.4852
     27 C16         3.6725    3.8869    3.9939 C.3     3  RES33       0.0167
     28 H20         3.5039    4.8105    3.7118 H       3  RES33       0.0400
     29 C17         4.5774    3.9709    5.2927 C.3     3  RES33      -0.0379
     30 H21         4.0584    4.3272    6.0315 H       3  RES33       0.0277
     31 H22         4.8792    3.0821    5.5390 H       3  RES33       0.0277
     32 C18         5.7471    4.8433    5.0345 C.3     3  RES33      -0.0268
     33 H23         5.4513    5.6706    4.6234 H       3  RES33       0.0313
     34 H24         6.3539    4.4030    4.4209 H       3  RES33       0.0313
     35 C19         6.4924    5.1587    6.3771 C.ar    3  RES33      -0.0473
     36 C20         7.5792    4.4091    6.8319 C.ar    3  RES33      -0.0586
     37 H25         7.8484    3.6514    6.3652 H       3  RES33       0.0620
     38 C21         8.2608    4.7982    7.9857 C.ar    3  RES33      -0.0615
     39 H26         8.9850    4.2985    8.2876 H       3  RES33       0.0618
     40 C22         7.8556    5.9348    8.6848 C.ar    3  RES33      -0.0617
     41 H27         8.3090    6.1949    9.4534 H       3  RES33       0.0618
     42 C23         6.7684    6.6823    8.2320 C.ar    3  RES33      -0.0615
     43 H28         6.4996    7.4421    8.6967 H       3  RES33       0.0618
     44 C24         6.0869    6.2952    7.0781 C.ar    3  RES33      -0.0586
     45 H29         5.3627    6.7929    6.7763 H       3  RES33       0.0620
     46 C25         0.7758    0.6840    6.5340 C.3     3  RES33       0.0167
     47 H30        -0.1495    0.7311    6.8517 H       3  RES33       0.0400
     48 C26         1.7303    0.7659    7.8368 C.3     3  RES33      -0.0379
     49 H31         1.5590    0.0000    8.4088 H       3  RES33       0.0277
     50 H32         2.6576    0.7250    7.5568 H       3  RES33       0.0277
     51 C27         1.4975    2.0704    8.6451 C.3     3  RES33      -0.0268
     52 H33         2.2016    2.1626    9.3064 H       3  RES33       0.0313
     53 H34         1.5517    2.8281    8.0433 H       3  RES33       0.0313
     54 C28         0.1568    2.0909    9.3442 C.ar    3  RES33      -0.0473
     55 C29         0.0595    1.5359   10.6212 C.ar    3  RES33      -0.0586
     56 H35         0.8143    1.1796   11.0303 H       3  RES33       0.0620
     57 C30        -1.1688    1.5134   11.2785 C.ar    3  RES33      -0.0615
     58 H36        -1.2332    1.1427   12.1305 H       3  RES33       0.0618
     59 C31        -2.3005    2.0459   10.6629 C.ar    3  RES33      -0.0617
     60 H37        -3.1207    2.0315   11.1018 H       3  RES33       0.0618
     61 C32        -2.2036    2.6029    9.3879 C.ar    3  RES33      -0.0615
     62 H38        -2.9580    2.9572    8.9768 H       3  RES33       0.0618
     63 C33        -0.9750    2.6254    8.7285 C.ar    3  RES33      -0.0586
     64 H39        -0.9109    2.9961    7.8785 H       3  RES33       0.0620
     65 O5         -1.4172    1.7448    5.0723 O.3     3  RES33      -0.4522
     66 C34        -1.7021    0.6185    4.4467 C.3     3  RES33       0.2333
     67 H40        -1.1400    0.5325    3.6602 H       3  RES33       0.1166
     68 H41        -2.6272    0.6328    4.1547 H       3  RES33       0.1166
     69 O6         -1.4944   -0.4813    5.2927 O.3     3  RES33      -0.4522
     70 C35        -0.2392   -1.1018    5.2232 C.ar    3  RES33       0.1735
     71 C36         0.9250   -0.6103    5.8150 C.ar    3  RES33       0.0061
     72 C37         2.1305   -1.2922    5.6522 C.ar    3  RES33      -0.0470
     73 H42         2.9060   -0.9646    6.0474 H       3  RES33       0.0626
     74 C38         2.1752   -2.4636    4.8975 C.ar    3  RES33       0.0061
     75 C39         1.0110   -2.9551    4.3057 C.ar    3  RES33       0.1735
     76 C40        -0.1959   -2.2752    4.4665 C.ar    3  RES33       0.2047
     77 O7         -1.2598   -2.6950    3.6860 O.3     3  RES33      -0.4852
     78 C41        -2.3291   -3.3401    4.4030 C.3     3  RES33       0.0900
     79 H43        -2.4969   -2.8486    5.2232 H       3  RES33       0.0696
     80 H44        -2.0471   -4.2351    4.6473 H       3  RES33       0.0696
     81 C42        -3.6622   -3.4343    3.5907 C.3     3  RES33      -0.0156
     82 H45        -4.4216   -3.7128    4.1269 H       3  RES33       0.0299
     83 H46        -3.8700   -2.6275    3.0942 H       3  RES33       0.0299
     84 C43        -3.1128   -4.5156    2.7506 C.3     3  RES33      -0.0156
     85 H47        -3.2253   -5.3921    3.1518 H       3  RES33       0.0299
     86 H48        -2.1821   -4.3702    2.5202 H       3  RES33       0.0299
     87 C44        -4.0833   -4.2842    1.5233 C.3     3  RES33       0.0900
     88 H49        -4.0137   -5.0337    0.9096 H       3  RES33       0.0696
     89 H50        -4.9998   -4.2412    1.8390 H       3  RES33       0.0696
     90 O8         -3.7554   -3.0493    0.8162 O.3     3  RES33      -0.4852
     91 O9          1.0199   -4.1675    3.5748 O.3     3  RES33      -0.4522
     92 C45         1.4576   -4.1286    2.3236 C.3     3  RES33       0.2333
     93 H51         1.2287   -3.2623    1.9522 H       3  RES33       0.1166
     94 H52         0.9756   -4.7982    1.8152 H       3  RES33       0.1166
     95 O10         2.7595   -4.3252    2.1350 O.3     3  RES33      -0.4522
     96 C46         3.4768   -3.1661    4.6612 C.3     3  RES33       0.0167
     97 H53         3.2642   -4.1142    4.5321 H       3  RES33       0.0400
     98 C47         4.4476   -3.0903    5.8766 C.3     3  RES33      -0.0379
     99 H54         4.7710   -2.1831    5.9838 H       3  RES33       0.0277
    100 H55         3.9802   -3.3442    6.6869 H       3  RES33       0.0277
    101 C48         5.6180   -4.0282    5.6442 C.3     3  RES33      -0.0268
    102 H56         5.2826   -4.9375    5.6085 H       3  RES33       0.0313
    103 H57         6.0090   -3.8275    4.7803 H       3  RES33       0.0313
    104 C49         6.7058   -3.9586    6.6909 C.ar    3  RES33      -0.0473
    105 C50         7.6289   -2.9264    6.5260 C.ar    3  RES33      -0.0586
    106 H58         7.5099   -2.2977    5.8488 H       3  RES33       0.0620
    107 C51         8.7330   -2.8343    7.3760 C.ar    3  RES33      -0.0615
    108 H59         9.3475   -2.1442    7.2648 H       3  RES33       0.0618
    109 C52         8.9128   -3.7743    8.3889 C.ar    3  RES33      -0.0617
    110 H60         9.6475   -3.7128    8.9569 H       3  RES33       0.0618
    111 C53         7.9894   -4.8064    8.5557 C.ar    3  RES33      -0.0615
    112 H61         8.1086   -5.4331    9.2310 H       3  RES33       0.0618
    113 C54         6.8852   -4.8986    7.7057 C.ar    3  RES33      -0.0586
    114 H62         6.2711   -5.5887    7.8149 H       3  RES33       0.0620
    115 C55         3.6368   -3.2439    2.1330 C.ar    3  RES33       0.1735
    116 C56         4.0727   -2.6623    3.3246 C.ar    3  RES33       0.0061
    117 C57         4.9701   -1.5953    3.2928 C.ar    3  RES33      -0.0470
    118 H63         5.2605   -1.2083    4.0852 H       3  RES33       0.0626
    119 C58         5.4315   -1.1079    2.0694 C.ar    3  RES33       0.0061
    120 C59         4.9956   -1.6895    0.8778 C.ar    3  RES33       0.1735
    121 C60        -4.0982    2.7565   -0.9096 C.ar    3  RES33       0.2047
    122 O11         5.4607   -1.2349   -0.3674 O.3     3  RES33      -0.4522
    123 C61         4.9623   -0.0348   -0.8877 C.3     3  RES33       0.2333
    124 H64         4.9640   -0.1024   -1.8549 H       3  RES33       0.1166
    125 H65         4.0380    0.0532   -0.6057 H       3  RES33       0.1166
    126 O12         5.5791    1.0321   -0.5640 O.3     3  RES33      -0.4522
    127 C62        -4.3249   -2.8650   -0.4369 C.ar    3  RES33       0.2047
    128 C63         3.9059    3.5859    1.5570 C.ar    3  RES33       0.1735
    129 C64         4.3214    3.1988    2.8301 C.ar    3  RES33       0.0061
    130 C65         5.1570    2.0930    2.9870 C.ar    3  RES33      -0.0470
    131 H66         5.4347    1.8370    3.8350 H       3  RES33       0.0626
    132 C66         5.5777    1.3741    1.8668 C.ar    3  RES33       0.0061
    133 C67         5.1604    1.7591    0.5938 C.ar    3  RES33       0.1735
    134 C68         6.3566    0.1003    1.9721 C.3     3  RES33       0.0167
    135 H67         6.8511    0.0082    1.1300 H       3  RES33       0.0400
    136 C69         7.4432    0.0491    3.1458 C.3     3  RES33      -0.0379
    137 H68         7.0247    0.3010    3.9839 H       3  RES33       0.0277
    138 H69         7.7743   -0.8581    3.2372 H       3  RES33       0.0277
    139 C70         8.5895    0.9687    2.8678 C.3     3  RES33      -0.0268
    140 H70         8.2557    1.8779    2.8023 H       3  RES33       0.0313
    141 H71         8.9809    0.7352    2.0118 H       3  RES33       0.0313
    142 C71         9.6887    0.9134    3.9561 C.ar    3  RES33      -0.0473
    143 C72        10.2580   -0.2826    4.3930 C.ar    3  RES33      -0.0586
    144 H72         9.9756   -1.0915    4.0316 H       3  RES33       0.0620
    145 C73        11.2538   -0.2662    5.3702 C.ar    3  RES33      -0.0615
    146 H73        11.6336   -1.0629    5.6601 H       3  RES33       0.0618
    147 C74        11.6786    0.9482    5.9104 C.ar    3  RES33      -0.0617
    148 H74        12.3424    0.9605    6.5618 H       3  RES33       0.0618
    149 C75        11.1093    2.1442    5.4734 C.ar    3  RES33      -0.0615
    150 H75        11.3917    2.9531    5.8349 H       3  RES33       0.0618
    151 C76        10.1135    2.1278    4.4963 C.ar    3  RES33      -0.0586
    152 H76         9.7337    2.9244    4.2064 H       3  RES33       0.0620
    153 C55B       -3.6368    3.2439   -2.1330 C.ar    3  RES33       0.1735
    154 O10B       -2.7595    4.3252   -2.1350 O.3     3  RES33      -0.4522
    155 C45B       -1.4576    4.1286   -2.3236 C.3     3  RES33       0.2333
    156 O9B        -1.0199    4.1675   -3.5748 O.3     3  RES33      -0.4522
    157 C39B       -1.0110    2.9551   -4.3057 C.ar    3  RES33       0.1735
    158 C38B       -2.1752    2.4636   -4.8975 C.ar    3  RES33       0.0061
    159 C37B       -2.1305    1.2922   -5.6522 C.ar    3  RES33      -0.0470
    160 C36B       -0.9250    0.6103   -5.8150 C.ar    3  RES33       0.0061
    161 C25B       -0.7758   -0.6840   -6.5340 C.3     3  RES33       0.0167
    162 C5B        -0.9573   -1.7878   -5.5529 C.ar    3  RES33       0.0061
    163 C4B        -2.2220   -2.3182   -5.2967 C.ar    3  RES33      -0.0470
    164 C3B        -2.3777   -3.3196   -4.3394 C.ar    3  RES33       0.0061
    165 C2B        -1.2690   -3.7927   -3.6364 C.ar    3  RES33       0.1735
    166 O2B        -1.2848   -4.8699   -2.7645 O.3     3  RES33      -0.4522
    167 C1B        -1.7924   -4.6405   -1.5352 C.3     3  RES33       0.2333
    168 O1B        -3.1435   -4.6897   -1.2929 O.3     3  RES33      -0.4522
    169 C63B       -3.9059   -3.5859   -1.5570 C.ar    3  RES33       0.1735
    170 C60B        4.0982   -2.7565    0.9096 C.ar    3  RES33       0.2047
    171 O4B         3.5649   -3.1927   -0.2999 O.3     3  RES33      -0.4852
    172 C11B        3.8791   -4.5996   -0.4766 C.3     3  RES33       0.0900
    173 C10B        3.1205   -5.1812   -1.6404 C.3     3  RES33      -0.0156
    174 C9B         3.3912   -4.3415   -2.8539 C.3     3  RES33      -0.0156
    175 C8B         2.1849   -4.0938   -3.7536 C.3     3  RES33       0.0900
    176 O3B         1.0289   -3.6002   -3.0287 O.3     3  RES33      -0.4852
    177 C7B        -0.0042   -3.2623   -3.8926 C.ar    3  RES33       0.2047
    178 C6B         0.1518   -2.2609   -4.8518 C.ar    3  RES33       0.1735
    179 O5B         1.4172   -1.7448   -5.0723 O.3     3  RES33      -0.4522
    180 C34B        1.7021   -0.6185   -4.4467 C.3     3  RES33       0.2333
    181 H40B        1.1400   -0.5325   -3.6602 H       3  RES33       0.1166
    182 H41B        2.6272   -0.6328   -4.1547 H       3  RES33       0.1166
    183 O6B         1.4944    0.4813   -5.2927 O.3     3  RES33      -0.4522
    184 C35B        0.2392    1.1018   -5.2232 C.ar    3  RES33       0.1735
    185 C40B        0.1959    2.2752   -4.4665 C.ar    3  RES33       0.2047
    186 O7B         1.2598    2.6950   -3.6860 O.3     3  RES33      -0.4852
    187 C41B        2.3291    3.3401   -4.4030 C.3     3  RES33       0.0900
    188 H43B        2.4969    2.8486   -5.2232 H       3  RES33       0.0696
    189 H44B        2.0471    4.2351   -4.6473 H       3  RES33       0.0696
    190 C42B        3.6622    3.4343   -3.5907 C.3     3  RES33      -0.0156
    191 H45B        4.4216    3.7128   -4.1269 H       3  RES33       0.0299
    192 H46B        3.8700    2.6275   -3.0942 H       3  RES33       0.0299
    193 C43B        3.1128    4.5156   -2.7506 C.3     3  RES33      -0.0156
    194 H47B        3.2253    5.3921   -3.1518 H       3  RES33       0.0299
    195 H48B        2.1821    4.3702   -2.5202 H       3  RES33       0.0299
    196 C44B        4.0833    4.2842   -1.5233 C.3     3  RES33       0.0900
    197 H49B        4.0137    5.0337   -0.9096 H       3  RES33       0.0696
    198 H50B        4.9998    4.2412   -1.8390 H       3  RES33       0.0696
    199 O8B         3.7554    3.0493   -0.8162 O.3     3  RES33      -0.4852
    200 C62B        4.3249    2.8650    0.4369 C.ar    3  RES33       0.2047
    201 H4B         1.9453   -4.9211   -4.2004 H       3  RES33       0.0696
    202 H5B         2.4282   -3.4487   -4.4348 H       3  RES33       0.0696
    203 H6B         3.7589   -3.4958   -2.5719 H       3  RES33       0.0299
    204 H7B         4.0817   -4.7982   -3.3782 H       3  RES33       0.0299
    205 H8B         2.1644   -5.1628   -1.4478 H       3  RES33       0.0299
    206 H9B         3.3838   -6.0925   -1.7934 H       3  RES33       0.0299
    207 H10B        4.8363   -4.6999   -0.6256 H       3  RES33       0.0696
    208 H11B        3.6587   -5.0849    0.3376 H       3  RES33       0.0696
    209 C67B       -5.1604   -1.7591   -0.5938 C.ar    3  RES33       0.1735
    210 O12B       -5.5791   -1.0321    0.5640 O.3     3  RES33      -0.4522
    211 C61B       -4.9623    0.0348    0.8877 C.3     3  RES33       0.2333
    212 O11B       -5.4607    1.2349    0.3674 O.3     3  RES33      -0.4522
    213 C59B       -4.9956    1.6895   -0.8778 C.ar    3  RES33       0.1735
    214 C58B       -5.4315    1.1079   -2.0694 C.ar    3  RES33       0.0061
    215 C57B       -4.9701    1.5953   -3.2928 C.ar    3  RES33      -0.0470
    216 C56B       -4.0727    2.6623   -3.3246 C.ar    3  RES33       0.0061
    217 C46B       -3.4768    3.1661   -4.6612 C.3     3  RES33       0.0167
    218 H53B       -3.2642    4.1142   -4.5321 H       3  RES33       0.0400
    219 C47B       -4.4476    3.0903   -5.8766 C.3     3  RES33      -0.0379
    220 H54B       -4.7710    2.1831   -5.9838 H       3  RES33       0.0277
    221 H55B       -3.9802    3.3442   -6.6869 H       3  RES33       0.0277
    222 C48B       -5.6180    4.0282   -5.6442 C.3     3  RES33      -0.0268
    223 H56B       -5.2826    4.9375   -5.6085 H       3  RES33       0.0313
    224 H57B       -6.0090    3.8275   -4.7803 H       3  RES33       0.0313
    225 C49B       -6.7058    3.9586   -6.6909 C.ar    3  RES33      -0.0473
    226 C50B       -7.6289    2.9264   -6.5260 C.ar    3  RES33      -0.0586
    227 H58B       -7.5099    2.2977   -5.8488 H       3  RES33       0.0620
    228 C51B       -8.7330    2.8343   -7.3760 C.ar    3  RES33      -0.0615
    229 H59B       -9.3475    2.1442   -7.2648 H       3  RES33       0.0618
    230 C52B       -8.9128    3.7743   -8.3889 C.ar    3  RES33      -0.0617
    231 H60B       -9.6475    3.7128   -8.9569 H       3  RES33       0.0618
    232 C53B       -7.9894    4.8064   -8.5557 C.ar    3  RES33      -0.0615
    233 H61B       -8.1086    5.4331   -9.2310 H       3  RES33       0.0618
    234 C54B       -6.8852    4.8986   -7.7057 C.ar    3  RES33      -0.0586
    235 H62B       -6.2711    5.5887   -7.8149 H       3  RES33       0.0620
    236 H63B       -5.2605    1.2083   -4.0852 H       3  RES33       0.0626
    237 C68B       -6.3566   -0.1003   -1.9721 C.3     3  RES33       0.0167
    238 C66B       -5.5777   -1.3741   -1.8668 C.ar    3  RES33       0.0061
    239 C65B       -5.1570   -2.0930   -2.9870 C.ar    3  RES33      -0.0470
    240 C64B       -4.3214   -3.1988   -2.8301 C.ar    3  RES33       0.0061
    241 C16B       -3.6725   -3.8869   -3.9939 C.3     3  RES33       0.0167
    242 H20B       -3.5039   -4.8105   -3.7118 H       3  RES33       0.0400
    243 C17B       -4.5774   -3.9709   -5.2927 C.3     3  RES33      -0.0379
    244 H21B       -4.0584   -4.3272   -6.0315 H       3  RES33       0.0277
    245 H22B       -4.8792   -3.0821   -5.5390 H       3  RES33       0.0277
    246 C18B       -5.7471   -4.8433   -5.0345 C.3     3  RES33      -0.0268
    247 H23B       -5.4513   -5.6706   -4.6234 H       3  RES33       0.0313
    248 H24B       -6.3539   -4.4030   -4.4209 H       3  RES33       0.0313
    249 C19B       -6.4924   -5.1587   -6.3771 C.ar    3  RES33      -0.0473
    250 C20B       -7.5792   -4.4091   -6.8319 C.ar    3  RES33      -0.0586
    251 H25B       -7.8484   -3.6514   -6.3652 H       3  RES33       0.0620
    252 C21B       -8.2608   -4.7982   -7.9857 C.ar    3  RES33      -0.0615
    253 H26B       -8.9850   -4.2985   -8.2876 H       3  RES33       0.0618
    254 C22B       -7.8556   -5.9348   -8.6848 C.ar    3  RES33      -0.0617
    255 H27B       -8.3090   -6.1949   -9.4534 H       3  RES33       0.0618
    256 C23B       -6.7684   -6.6823   -8.2320 C.ar    3  RES33      -0.0615
    257 H28B       -6.4996   -7.4421   -8.6967 H       3  RES33       0.0618
    258 C24B       -6.0869   -6.2952   -7.0781 C.ar    3  RES33      -0.0586
    259 H29B       -5.3627   -6.7929   -6.7763 H       3  RES33       0.0620
    260 H66B       -5.4347   -1.8370   -3.8350 H       3  RES33       0.0626
    261 H67B       -6.8511   -0.0082   -1.1300 H       3  RES33       0.0400
    262 C69B       -7.4432   -0.0491   -3.1458 C.3     3  RES33      -0.0379
    263 H68B       -7.0247   -0.3010   -3.9839 H       3  RES33       0.0277
    264 H69B       -7.7743    0.8581   -3.2372 H       3  RES33       0.0277
    265 C70B       -8.5895   -0.9687   -2.8678 C.3     3  RES33      -0.0268
    266 H70B       -8.2557   -1.8779   -2.8023 H       3  RES33       0.0313
    267 H71B       -8.9809   -0.7352   -2.0118 H       3  RES33       0.0313
    268 C71B       -9.6887   -0.9134   -3.9561 C.ar    3  RES33      -0.0473
    269 C72B      -10.2580    0.2826   -4.3930 C.ar    3  RES33      -0.0586
    270 H72B       -9.9756    1.0915   -4.0316 H       3  RES33       0.0620
    271 C73B      -11.2538    0.2662   -5.3702 C.ar    3  RES33      -0.0615
    272 H73B      -11.6336    1.0629   -5.6601 H       3  RES33       0.0618
    273 C74B      -11.6786   -0.9482   -5.9104 C.ar    3  RES33      -0.0617
    274 H74B      -12.3424   -0.9605   -6.5618 H       3  RES33       0.0618
    275 C75B      -11.1093   -2.1442   -5.4734 C.ar    3  RES33      -0.0615
    276 H75B      -11.3917   -2.9531   -5.8349 H       3  RES33       0.0618
    277 C76B      -10.1135   -2.1278   -4.4963 C.ar    3  RES33      -0.0586
    278 H76B       -9.7337   -2.9244   -4.2064 H       3  RES33       0.0620
    279 H64B       -4.9640    0.1024    1.8549 H       3  RES33       0.1166
    280 H65B       -4.0380   -0.0532    0.6057 H       3  RES33       0.1166
    281 H1B        -1.3746   -5.2774   -0.9334 H       3  RES33       0.1166
    282 H2B        -1.4883   -3.7599   -1.2631 H       3  RES33       0.1166
    283 H3B        -2.9617   -2.0049   -5.7654 H       3  RES33       0.0626
    284 H30B        0.1495   -0.7311   -6.8517 H       3  RES33       0.0400
    285 C26B       -1.7303   -0.7659   -7.8368 C.3     3  RES33      -0.0379
    286 H31B       -1.5590   -0.0000   -8.4088 H       3  RES33       0.0277
    287 H32B       -2.6576   -0.7250   -7.5568 H       3  RES33       0.0277
    288 C27B       -1.4975   -2.0704   -8.6451 C.3     3  RES33      -0.0268
    289 H33B       -2.2016   -2.1626   -9.3064 H       3  RES33       0.0313
    290 H34B       -1.5517   -2.8281   -8.0433 H       3  RES33       0.0313
    291 C28B       -0.1568   -2.0909   -9.3442 C.ar    3  RES33      -0.0473
    292 C29B       -0.0595   -1.5359  -10.6212 C.ar    3  RES33      -0.0586
    293 H35B       -0.8143   -1.1796  -11.0303 H       3  RES33       0.0620
    294 C30B        1.1688   -1.5134  -11.2785 C.ar    3  RES33      -0.0615
    295 H36B        1.2332   -1.1427  -12.1305 H       3  RES33       0.0618
    296 C31B        2.3005   -2.0459  -10.6629 C.ar    3  RES33      -0.0617
    297 H37B        3.1207   -2.0315  -11.1018 H       3  RES33       0.0618
    298 C32B        2.2036   -2.6029   -9.3879 C.ar    3  RES33      -0.0615
    299 H38B        2.9580   -2.9572   -8.9768 H       3  RES33       0.0618
    300 C33B        0.9750   -2.6254   -8.7285 C.ar    3  RES33      -0.0586
    301 H39B        0.9109   -2.9961   -7.8785 H       3  RES33       0.0620
    302 H42B       -2.9060    0.9646   -6.0474 H       3  RES33       0.0626
    303 H51B       -1.2287    3.2623   -1.9522 H       3  RES33       0.1166
    304 H52B       -0.9756    4.7982   -1.8152 H       3  RES33       0.1166
@<TRIPOS>BOND
     1     1     2    1
     2     2     3    1
     3     4     2    1
     4     5     2    1
     5     6     5    1
     6     7     6   ar
     7     8     7   ar
     8     9     8    1
     9    10     8   ar
    10    11    10   ar
    11    12     6   ar
    12    13    12    1
    13    14    13    1
    14    15    14    1
    15    16    14    1
    16    17    14    1
    17    18    17    1
    18    19    17    1
    19    20    17    1
    20    21    20    1
    21    22    20    1
    22    23    20    1
    23    24    23    1
    24    25    23    1
    25    26    23    1
    26    27     7    1
    27    28    27    1
    28    29    27    1
    29    30    29    1
    30    31    29    1
    31    32    29    1
    32    33    32    1
    33    34    32    1
    34    35    32    1
    35    36    35   ar
    36    37    36    1
    37    38    36   ar
    38    39    38    1
    39    40    38   ar
    40    41    40    1
    41    42    40   ar
    42    43    42    1
    43    44    35   ar
    44    45    44    1
    45    46    10    1
    46    47    46    1
    47    48    46    1
    48    49    48    1
    49    50    48    1
    50    51    48    1
    51    52    51    1
    52    53    51    1
    53    54    51    1
    54    55    54   ar
    55    56    55    1
    56    57    55   ar
    57    58    57    1
    58    59    57   ar
    59    60    59    1
    60    61    59   ar
    61    62    61    1
    62    63    54   ar
    63    64    63    1
    64    65    11    1
    65    66    65    1
    66    67    66    1
    67    68    66    1
    68    69    66    1
    69    70    69    1
    70    71    46    1
    71    72    71   ar
    72    73    72    1
    73    74    72   ar
    74    75    74   ar
    75    76    70   ar
    76    77    76    1
    77    78    77    1
    78    79    78    1
    79    80    78    1
    80    81    78    1
    81    82    81    1
    82    83    81    1
    83    84    81    1
    84    85    84    1
    85    86    84    1
    86    87    84    1
    87    88    87    1
    88    89    87    1
    89    90    87    1
    90    91    75    1
    91    92    91    1
    92    93    92    1
    93    94    92    1
    94    95    92    1
    95    96    74    1
    96    97    96    1
    97    98    96    1
    98    99    98    1
    99   100    98    1
   100   101    98    1
   101   102   101    1
   102   103   101    1
   103   104   101    1
   104   105   104   ar
   105   106   105    1
   106   107   105   ar
   107   108   107    1
   108   109   107   ar
   109   110   109    1
   110   111   109   ar
   111   112   111    1
   112   113   104   ar
   113   114   113    1
   114   115    95    1
   115   116    96    1
   116   117   116   ar
   117   118   117    1
   118   119   117   ar
   119   120   119   ar
   120   121    26    1
   121   122   120    1
   122   123   122    1
   123   124   123    1
   124   125   123    1
   125   126   123    1
   126   127    90    1
   127   128     1    1
   128   129    27    1
   129   130   129   ar
   130   131   130    1
   131   132   130   ar
   132   133   126    1
   133   134   119    1
   134   135   134    1
   135   136   134    1
   136   137   136    1
   137   138   136    1
   138   139   136    1
   139   140   139    1
   140   141   139    1
   141   142   139    1
   142   143   142   ar
   143   144   143    1
   144   145   143   ar
   145   146   145    1
   146   147   145   ar
   147   148   147    1
   148   149   147   ar
   149   150   149    1
   150   151   142   ar
   151   152   151    1
   152   153   121   ar
   153   154   153    1
   154   155   154    1
   155   156   155    1
   156   157   156    1
   157   158   157   ar
   158   159   158   ar
   159   160   159   ar
   160   161   160    1
   161   162   161    1
   162   163   162   ar
   163   164   163   ar
   164   165   164   ar
   165   166   165    1
   166   167   166    1
   167   168   167    1
   168   169   127   ar
   169   170   115   ar
   170   171   170    1
   171   172   171    1
   172   173   172    1
   173   174   173    1
   174   175   174    1
   175   176   175    1
   176   177   165   ar
   177   178   162   ar
   178   179   178    1
   179   180   179    1
   180   181   180    1
   181   182   180    1
   182   183   180    1
   183   184   160   ar
   184   185   157   ar
   185   186   185    1
   186   187   186    1
   187   188   187    1
   188   189   187    1
   189   190   187    1
   190   191   190    1
   191   192   190    1
   192   193   190    1
   193   194   193    1
   194   195   193    1
   195   196   193    1
   196   197   196    1
   197   198   196    1
   198   199   196    1
   199   200   128   ar
   200   201   175    1
   201   202   175    1
   202   203   174    1
   203   204   174    1
   204   205   173    1
   205   206   173    1
   206   207   172    1
   207   208   172    1
   208   209   127   ar
   209   210   209    1
   210   211   210    1
   211   212   211    1
   212   213   121   ar
   213   214   213   ar
   214   215   214   ar
   215   216   153   ar
   216   217   158    1
   217   218   217    1
   218   219   217    1
   219   220   219    1
   220   221   219    1
   221   222   219    1
   222   223   222    1
   223   224   222    1
   224   225   222    1
   225   226   225   ar
   226   227   226    1
   227   228   226   ar
   228   229   228    1
   229   230   228   ar
   230   231   230    1
   231   232   230   ar
   232   233   232    1
   233   234   225   ar
   234   235   234    1
   235   236   215    1
   236   237   214    1
   237   238   209   ar
   238   239   238   ar
   239   240   169   ar
   240   241   164    1
   241   242   241    1
   242   243   241    1
   243   244   243    1
   244   245   243    1
   245   246   243    1
   246   247   246    1
   247   248   246    1
   248   249   246    1
   249   250   249   ar
   250   251   250    1
   251   252   250   ar
   252   253   252    1
   253   254   252   ar
   254   255   254    1
   255   256   254   ar
   256   257   256    1
   257   258   249   ar
   258   259   258    1
   259   260   239    1
   260   261   237    1
   261   262   237    1
   262   263   262    1
   263   264   262    1
   264   265   262    1
   265   266   265    1
   266   267   265    1
   267   268   265    1
   268   269   268   ar
   269   270   269    1
   270   271   269   ar
   271   272   271    1
   272   273   271   ar
   273   274   273    1
   274   275   273   ar
   275   276   275    1
   276   277   268   ar
   277   278   277    1
   278   279   211    1
   279   280   211    1
   280   281   167    1
   281   282   167    1
   282   283   163    1
   283   284   161    1
   284   285   161    1
   285   286   285    1
   286   287   285    1
   287   288   285    1
   288   289   288    1
   289   290   288    1
   290   291   288    1
   291   292   291   ar
   292   293   292    1
   293   294   292   ar
   294   295   294    1
   295   296   294   ar
   296   297   296    1
   297   298   296   ar
   298   299   298    1
   299   300   291   ar
   300   301   300    1
   301   302   159    1
   302   303   155    1
   303   304   155    1
   304    11    12   ar
   305    42    44   ar
   306    61    63   ar
   307    70    71   ar
   308    75    76   ar
   309   111   113   ar
   310   115   116   ar
   311   120   170   ar
   312   128   129   ar
   313   132   133   ar
   314   132   134    1
   315   133   200   ar
   316   149   151   ar
   317   168   169    1
   318   176   177    1
   319   177   178   ar
   320   183   184    1
   321   184   185   ar
   322   199   200    1
   323   212   213    1
   324   215   216   ar
   325   216   217    1
   326   232   234   ar
   327   237   238    1
   328   239   240   ar
   329   240   241    1
   330   256   258   ar
   331   275   277   ar
   332   298   300   ar
