@<TRIPOS>MOLECULE
*****
 286 300 0 0 0
SMALL
GASTEIGER

@<TRIPOS>ATOM
      1 C33         2.6570    8.3352    0.9783 C.3    30  RES3030     0.1884
      2 H33         2.8121    8.3382   -0.0094 H      30  RES3030     0.0938
      3 O57         4.9873    8.8421    1.3964 O.3    30  RES3030    -0.3841
      4 H34         4.9561    8.4031    0.7330 H      30  RES3030     0.2101
      5 C34         3.6590    9.2633    1.6416 C.3    30  RES3030     0.1341
      6 H35         3.5493   10.1685    1.2302 H      30  RES3030     0.0671
      7 O58         4.2442   10.3743    3.7375 O.3    30  RES3030    -0.3864
      8 H36         4.7785    9.9387    4.0565 H      30  RES3030     0.2100
      9 C35         3.3854    9.4009    3.1439 C.3    30  RES3030     0.1144
     10 H37         3.5237    8.5166    3.5915 H      30  RES3030     0.0648
     11 C36         1.9520    9.8389    3.3315 C.3    30  RES3030     0.1184
     12 H38         1.8273   10.7436    2.9214 H      30  RES3030     0.0651
     13 O59         2.8781    7.0190    1.4795 O.3    30  RES3030    -0.3401
     14 O60         1.3525    8.7315    1.2342 O.3    30  RES3030    -0.3405
     15 C37         1.0057    8.8363    2.6427 C.3    30  RES3030     0.1134
     16 H39         1.1197    7.9387    3.0715 H      30  RES3030     0.0647
     17 O61        -0.5786   10.5631    2.1321 O.3    30  RES3030    -0.3924
     18 H40        -1.3513   10.8446    2.3036 H      30  RES3030     0.2095
     19 C38        -0.4040    9.2182    2.7164 C.3    30  RES3030     0.0730
     20 H41        -0.7025    9.2224    3.6611 H      30  RES3030     0.0584
     21 H42        -0.9552    8.5624    2.2205 H      30  RES3030     0.0584
     22 C39         1.1642   11.1435    5.2304 C.3    30  RES3030     0.1884
     23 H43         1.2950   11.8466    4.5309 H      30  RES3030     0.0938
     24 O62         3.3848   11.6532    6.1015 O.3    30  RES3030    -0.3841
     25 H44         3.5956   11.7311    5.4060 H      30  RES3030     0.2101
     26 C40         2.0024   11.5143    6.4164 C.3    30  RES3030     0.1341
     27 H45         1.6728   12.3902    6.7702 H      30  RES3030     0.0671
     28 O63         2.4779   10.7994    8.7039 O.3    30  RES3030    -0.3864
     29 H46         3.1776   10.2519    8.5485 H      30  RES3030     0.2100
     30 C41         1.7880   10.4390    7.5099 C.3    30  RES3030     0.1144
     31 H47         2.1322    9.5603    7.1816 H      30  RES3030     0.0648
     32 C42         0.3605   10.3219    7.7967 C.3    30  RES3030     0.1184
     33 H48         0.0540   11.1399    8.2831 H      30  RES3030     0.0651
     34 O64         1.6541    9.9094    4.7078 O.3    30  RES3030    -0.3401
     35 O65        -0.1850   11.1092    5.5493 O.3    30  RES3030    -0.3405
     36 C43        -0.5194   10.1130    6.5450 C.3    30  RES3030     0.1134
     37 H49        -0.3610    9.2001    6.1712 H      30  RES3030     0.0647
     38 O66        -2.2766   11.5701    7.4442 O.3    30  RES3030    -0.3924
     39 H50        -2.2466   12.1719    6.8586 H      30  RES3030     0.2095
     40 C44        -1.9991   10.2950    6.8385 C.3    30  RES3030     0.0730
     41 H51        -2.5107   10.2167    5.9943 H      30  RES3030     0.0584
     42 H52        -2.3016    9.5738    7.4456 H      30  RES3030     0.0584
     43 C45        -0.5606    9.3003    9.8671 C.3    30  RES3030     0.1885
     44 H53        -0.8027   10.2616    9.9998 H      30  RES3030     0.0938
     45 O67         1.5401    9.5773   11.0880 O.3    30  RES3030    -0.3841
     46 H54         1.5355   10.1513   10.6752 H      30  RES3030     0.2101
     47 C46         0.3439    8.8524   10.9901 C.3    30  RES3030     0.1341
     48 H55        -0.1556    8.9790   11.8478 H      30  RES3030     0.0671
     49 O68         1.3977    6.9234   12.0033 O.3    30  RES3030    -0.3864
     50 H56         1.5730    6.1064   11.9309 H      30  RES3030     0.2100
     51 C47         0.6610    7.3570   10.8561 C.3    30  RES3030     0.1144
     52 H57         1.2057    7.2021   10.0320 H      30  RES3030     0.0648
     53 C48        -0.6570    6.5680   10.7597 C.3    30  RES3030     0.1192
     54 H58        -1.1554    6.6383   11.6227 H      30  RES3030     0.0651
     55 O69         0.1895    9.1650    8.6570 O.3    30  RES3030    -0.3401
     56 O70        -1.7228    8.5353    9.8109 O.3    30  RES3030    -0.3397
     57 C49        -1.5294    7.1179    9.6045 C.3    30  RES3030     0.1248
     58 H59        -1.0438    6.9825    8.7415 H      30  RES3030     0.0655
     59 O71        -3.5952    6.9857    8.3502 O.3    30  RES3030    -0.3798
     60 H60        -3.7134    6.3605    7.8007 H      30  RES3030     0.2105
     61 C50        -2.8540    6.4803    9.5080 C.3    30  RES3030     0.1623
     62 C51        -0.8099    4.2272   11.4391 C.3    30  RES3030     0.1884
     63 H61        -1.2021    4.6826   12.2391 H      30  RES3030     0.0938
     64 O72         1.3537    4.1572   12.5728 O.3    30  RES3030    -0.3841
     65 H62         0.9895    4.5200   13.2375 H      30  RES3030     0.2101
     66 C52         0.3894    3.3981   11.8626 C.3    30  RES3030     0.1341
     67 H63         0.0577    2.6806   12.4763 H      30  RES3030     0.0671
     68 O73         2.0767    1.8687   11.0853 O.3    30  RES3030    -0.3864
     69 H64         2.4183    1.6893   10.4595 H      30  RES3030     0.2100
     70 C53         0.9833    2.7291   10.6632 C.3    30  RES3030     0.1144
     71 H65         1.3265    3.4207   10.0280 H      30  RES3030     0.0648
     72 C54        -0.0710    1.8773    9.9717 C.3    30  RES3030     0.1184
     73 H66        -0.3172    1.1112   10.5640 H      30  RES3030     0.0651
     74 O74        -0.3257    5.2158   10.5091 O.3    30  RES3030    -0.3401
     75 O75        -1.7923    3.4263   10.8240 O.3    30  RES3030    -0.3405
     76 C55        -1.3318    2.6972    9.6581 C.3    30  RES3030     0.1134
     77 H67        -1.1041    3.3600    8.9438 H      30  RES3030     0.0647
     78 O76        -2.7851    0.8118   10.1017 O.3    30  RES3030    -0.3924
     79 H68        -3.2412    1.1241   10.7328 H      30  RES3030     0.2095
     80 C56        -2.4718    1.8570    9.1743 C.3    30  RES3030     0.0730
     81 H69        -3.2684    2.4289    9.0443 H      30  RES3030     0.0584
     82 H70        -2.2380    1.4577    8.2992 H      30  RES3030     0.0584
     83 C57         0.4295   -0.0243    8.5391 C.3    30  RES3030     0.1885
     84 H71         0.0385   -0.4522    9.3539 H      30  RES3030     0.0938
     85 O77         2.6825   -0.2047    9.4222 O.3    30  RES3030    -0.3841
     86 H72         3.4544   -0.8204    9.1395 H      30  RES3030     0.2101
     87 C58         1.8495   -0.5478    8.3448 C.3    30  RES3030     0.1341
     88 H73         1.8217   -1.5430    8.2577 H      30  RES3030     0.0671
     89 O78         3.7264   -0.4610    6.7715 O.3    30  RES3030    -0.3864
     90 H74         3.6244   -1.0744    6.1792 H      30  RES3030     0.2100
     91 C59         2.3995    0.0596    7.0315 C.3    30  RES3030     0.1144
     92 H75         2.4276    1.0581    7.0958 H      30  RES3030     0.0648
     93 C60         1.5142   -0.3603    5.9045 C.3    30  RES3030     0.1192
     94 H76         1.5238   -1.3574    5.8187 H      30  RES3030     0.0651
     95 O79         0.4767    1.3708    8.7401 O.3    30  RES3030    -0.3401
     96 O80        -0.3759   -0.3302    7.4416 O.3    30  RES3030    -0.3397
     97 C61         0.0959    0.1233    6.1578 C.3    30  RES3030     0.1248
     98 H77         0.0685    1.1231    6.1216 H      30  RES3030     0.0655
     99 O81        -1.0028   -1.9130    5.3483 O.3    30  RES3030    -0.3798
    100 H78        -1.7564   -2.1284    5.6525 H      30  RES3030     0.2105
    101 C62        -0.9211   -0.4414    5.2264 C.3    30  RES3030     0.1623
    102 C63         2.2599   -0.6056    3.5995 C.3    30  RES3030     0.1884
    103 H79         2.0947   -1.5551    3.8675 H      30  RES3030     0.0938
    104 O82         4.6072   -0.8766    4.1878 O.3    30  RES3030    -0.3841
    105 H80         5.1307   -0.2515    4.3861 H      30  RES3030     0.2101
    106 C64         3.7279   -0.4492    3.1814 C.3    30  RES3030     0.1341
    107 H81         3.8752   -1.0407    2.3894 H      30  RES3030     0.0671
    108 O83         5.2988    1.1480    2.2473 O.3    30  RES3030    -0.3864
    109 H82         5.8375    0.9499    2.8611 H      30  RES3030     0.2100
    110 C65         3.9522    0.9783    2.7217 C.3    30  RES3030     0.1144
    111 H83         3.8014    1.5945    3.4950 H      30  RES3030     0.0648
    112 C66         3.0077    1.3296    1.6376 C.3    30  RES3030     0.1184
    113 H84         3.2308    0.8023    0.8175 H      30  RES3030     0.0651
    114 O84         2.0168    0.2396    4.7011 O.3    30  RES3030    -0.3401
    115 O85         1.4193   -0.2741    2.4979 O.3    30  RES3030    -0.3405
    116 C67         1.5579    1.0547    2.0437 C.3    30  RES3030     0.1134
    117 H85         1.2940    1.6846    2.7727 H      30  RES3030     0.0647
    118 O86        -0.7355    1.0011    1.3079 O.3    30  RES3030    -0.3924
    119 H86        -0.7842    1.1805    2.1267 H      30  RES3030     0.2095
    120 C68         0.6031    1.2258    0.8496 C.3    30  RES3030     0.0730
    121 H87         0.6847    2.1403    0.4771 H      30  RES3030     0.0584
    122 H88         0.8292    0.5783    0.1367 H      30  RES3030     0.0584
    123 C69         3.4187    3.1975    0.0375 C.3    30  RES3030     0.1884
    124 H89         3.5860    2.4108   -0.5575 H      30  RES3030     0.0938
    125 O87         5.7794    3.2846    0.5092 O.3    30  RES3030    -0.3841
    126 H90         6.4818    3.6365    0.2091 H      30  RES3030     0.2101
    127 C70         4.6652    4.0442    0.1072 C.3    30  RES3030     0.1341
    128 H91         4.8474    4.3941   -0.8108 H      30  RES3030     0.0671
    129 O88         5.5305    6.0951    1.0627 O.3    30  RES3030    -0.3864
    130 H92         6.1919    5.6625    1.3468 H      30  RES3030     0.2100
    131 C71         4.3870    5.2421    1.0158 C.3    30  RES3030     0.1144
    132 H93         4.1958    4.9085    1.9391 H      30  RES3030     0.0648
    133 C72         3.1984    5.9849    0.5173 C.3    30  RES3030     0.1184
    134 H94         3.4349    6.4187   -0.3538 H      30  RES3030     0.0651
    135 O89         3.1521    2.7400    1.3548 O.3    30  RES3030    -0.3401
    136 O90         2.3269    3.9461   -0.4690 O.3    30  RES3030    -0.3405
    137 C73         1.9959    5.0867    0.3029 C.3    30  RES3030     0.1134
    138 H95         1.6557    4.7838    1.1940 H      30  RES3030     0.0647
    139 O91         1.2649    6.3337   -1.6309 O.3    30  RES3030    -0.3924
    140 H96         1.6371    7.0733   -1.4835 H      30  RES3030     0.2095
    141 C74         0.8780    5.7669   -0.4355 C.3    30  RES3030     0.0730
    142 H97         0.1621    5.1056   -0.6124 H      30  RES3030     0.0584
    143 H98         0.4976    6.4743    0.1434 H      30  RES3030     0.0584
    144 C75         6.1644    5.5834   13.9786 C.3    31  RES3131     0.1884
    145 H99         6.0318    5.0006   14.7813 H      31  RES3131     0.0938
    146 O92         3.7886    5.5316   13.5712 O.3    31  RES3131    -0.3841
    147 H100        3.4314    5.6922   12.8288 H      31  RES3131     0.2101
    148 C76         4.8881    6.3645   13.7467 C.3    31  RES3131     0.1341
    149 H101        4.7228    6.9327   14.5535 H      31  RES3131     0.0671
    150 O93         3.9307    8.0887   12.3611 O.3    31  RES3131    -0.3864
    151 H102        3.8075    8.3874   11.6883 H      31  RES3131     0.2100
    152 C77         5.1159    7.2894   12.5581 C.3    31  RES3131     0.1144
    153 H103        5.2999    6.7484   11.7379 H      31  RES3131     0.0648
    154 C78         6.3002    8.1953   12.8556 C.3    31  RES3131     0.1184
    155 H104        6.0965    8.8130   13.6154 H      31  RES3131     0.0651
    156 O94         6.3950    4.7408   12.8475 O.3    31  RES3131    -0.3401
    157 O95         7.2658    6.4117   14.2158 O.3    31  RES3131    -0.3405
    158 C79         7.5506    7.3482   13.1557 C.3    31  RES3131     0.1134
    159 H105        7.8378    6.8567   12.3329 H      31  RES3131     0.0647
    160 O96         8.2802    8.8816   14.8389 O.3    31  RES3131    -0.3924
    161 H106        8.7676    8.6380   15.4795 H      31  RES3131     0.2095
    162 C80         8.6806    8.2123   13.6623 C.3    31  RES3131     0.0730
    163 H107        9.4726    7.6504   13.8513 H      31  RES3131     0.0584
    164 H108        8.9310    8.8748   12.9708 H      31  RES3131     0.0584
    165 C81         6.6813   10.3509   11.7647 C.3    31  RES3131     0.1884
    166 H109        6.4139   10.6291   12.6881 H      31  RES3131     0.0938
    167 O97         4.3859   10.4951   11.0263 O.3    31  RES3131    -0.3841
    168 H110        3.9517   11.1188   11.3868 H      31  RES3131     0.2101
    169 C82         5.7109   10.9374   10.7449 C.3    31  RES3131     0.1341
    170 H111        5.7436   11.9354   10.7932 H      31  RES3131     0.0671
    171 O98         5.2167   11.0540    8.3917 O.3    31  RES3131    -0.3864
    172 H112        5.2265   10.5371    7.4845 H      31  RES3131     0.2100
    173 C83         6.1147   10.4879    9.3525 C.3    31  RES3131     0.1144
    174 H113        6.0861    9.4896    9.2963 H      31  RES3131     0.0648
    175 C84         7.5045   10.9686    9.0872 C.3    31  RES3131     0.1184
    176 H114        7.5250   11.9679    9.0349 H      31  RES3131     0.0651
    177 O99         6.5946    8.9407   11.6428 O.3    31  RES3131    -0.3401
    178 O100        7.9966   10.8183   11.4766 O.3    31  RES3131    -0.3405
    179 C85         8.4976   10.4656   10.1633 C.3    31  RES3131     0.1134
    180 H115        8.5829    9.4722   10.0976 H      31  RES3131     0.0647
    181 O101        9.7472   12.5076   10.0387 O.3    31  RES3131    -0.3924
    182 H116       10.5124   12.8532   10.0816 H      31  RES3131     0.2095
    183 C86         9.8654   11.1005   10.0481 C.3    31  RES3131     0.0730
    184 H117       10.4273   10.8184   10.8133 H      31  RES3131     0.0584
    185 H118       10.3041   10.7959    9.2145 H      31  RES3131     0.0584
    186 C87         8.5072   11.2520    6.8693 C.3    31  RES3131     0.1863
    187 H119        8.4917   12.1865    7.2245 H      31  RES3131     0.0937
    188 O102        6.3480   11.6068    5.8804 O.3    31  RES3131    -0.3864
    189 H120        5.9789   11.8879    5.1795 H      31  RES3131     0.2100
    190 C88         7.6792   11.1941    5.5842 C.3    31  RES3131     0.1116
    191 H121        8.0671   11.8568    4.9450 H      31  RES3131     0.0648
    192 C89         7.7643    9.8421    4.9423 C.3    31  RES3131     0.0264
    193 H123        7.3796    9.1618    5.5668 H      31  RES3131     0.0358
    194 C90         9.2425    9.5265    4.7158 C.3    31  RES3131     0.0958
    195 H124        9.6403   10.1696    4.0632 H      31  RES3131     0.0627
    196 O104        7.9138   10.3887    7.8181 O.3    31  RES3131    -0.3402
    197 O105        9.8517   10.8818    6.6080 O.3    31  RES3131    -0.3407
    198 C91         9.9847    9.5872    6.0412 C.3    31  RES3131     0.1112
    199 H125        9.6078    8.9060    6.6683 H      31  RES3131     0.0646
    200 O106       12.0182   10.1773    4.9275 O.3    31  RES3131    -0.3924
    201 H126       12.2779   10.8804    5.3081 H      31  RES3131     0.2095
    202 C92        11.4747    9.3338    5.8495 C.3    31  RES3131     0.0729
    203 H127       11.9397    9.4547    6.7152 H      31  RES3131     0.0584
    204 H128       11.6115    8.3988    5.5574 H      31  RES3131     0.0584
    205 C93         9.9227    8.0380    2.9067 C.3    31  RES3131     0.1883
    206 H129       10.0620    8.9359    2.4899 H      31  RES3131     0.0938
    207 O107        7.7261    7.9196    1.8627 O.3    31  RES3131    -0.3841
    208 H130        7.8744    8.6655    1.5090 H      31  RES3131     0.2101
    209 C94         8.9830    7.1996    2.0316 C.3    31  RES3131     0.1341
    210 H131        9.4048    7.0621    1.1351 H      31  RES3131     0.0671
    211 O108        7.9366    5.0699    1.8091 O.3    31  RES3131    -0.3864
    212 H132        7.8021    4.3221    2.1683 H      31  RES3131     0.2100
    213 C95         8.7419    5.8725    2.6695 C.3    31  RES3131     0.1144
    214 H133        8.2794    5.9968    3.5472 H      31  RES3131     0.0648
    215 C96        10.0623    5.1994    2.8826 C.3    31  RES3131     0.1184
    216 H134       10.4445    4.9401    1.9967 H      31  RES3131     0.0651
    217 O109        9.2913    8.1909    4.1932 O.3    31  RES3131    -0.3424
    218 O110       11.1591    7.3768    3.0367 O.3    31  RES3131    -0.3405
    219 C97        11.0670    6.0469    3.6303 C.3    31  RES3131     0.1134
    220 H135       10.7683    6.1391    4.5791 H      31  RES3131     0.0647
    221 O111       12.9361    5.2638    2.2875 O.3    31  RES3131    -0.3924
    222 H136       12.2970    5.0181    1.8011 H      31  RES3131     0.2095
    223 C98        12.4653    5.4912    3.6169 C.3    31  RES3131     0.0730
    224 H137       13.0726    6.1276    4.0726 H      31  RES3131     0.0584
    225 H138       12.4822    4.6395    4.1195 H      31  RES3131     0.0584
    226 C99        10.3693    2.7803    3.1961 C.3    31  RES3131     0.1885
    227 H139       10.8389    2.9410    2.3264 H      31  RES3131     0.0938
    228 O112        8.3280    2.2896    2.0155 O.3    31  RES3131    -0.3841
    229 H140        8.7436    2.4547    1.3039 H      31  RES3131     0.2101
    230 C100        9.2287    1.7982    2.9790 C.3    31  RES3131     0.1341
    231 H141        9.6189    0.9466    2.6293 H      31  RES3131     0.0671
    232 O113        7.4900    0.5485    4.0645 O.3    31  RES3131    -0.3864
    233 H142        7.1097    0.3844    4.7949 H      31  RES3131     0.2100
    234 C101        8.5323    1.4870    4.2763 C.3    31  RES3131     0.1144
    235 H143        8.1298    2.3321    4.6274 H      31  RES3131     0.0648
    236 C102        9.5689    0.9794    5.3001 C.3    31  RES3131     0.1192
    237 H144        9.9330    0.1008    4.9892 H      31  RES3131     0.0651
    238 O114        9.8201    4.0005    3.6625 O.3    31  RES3131    -0.3401
    239 O115       11.3056    2.2649    4.1503 O.3    31  RES3131    -0.3397
    240 C103       10.7168    1.9766    5.4341 C.3    31  RES3131     0.1248
    241 H145       10.3743    2.8239    5.8401 H      31  RES3131     0.0655
    242 O116       12.2669    0.0507    5.7316 O.3    31  RES3131    -0.3798
    243 H146       12.5987    0.1769    4.9704 H      31  RES3131     0.2105
    244 C104       11.8041    1.3965    6.3212 C.3    31  RES3131     0.1623
    245 C105        8.9572   -0.4665    7.1387 C.3    31  RES3131     0.1884
    246 H147        9.3306   -1.1149    6.4767 H      31  RES3131     0.0938
    247 O117        6.7299   -0.8884    6.2810 O.3    31  RES3131    -0.3841
    248 H148        7.0439   -1.4434    5.7343 H      31  RES3131     0.2101
    249 C106        7.5279   -0.8803    7.4603 C.3    31  RES3131     0.1341
    250 H149        7.5329   -1.7954    7.8610 H      31  RES3131     0.0671
    251 O118        5.6500   -0.2963    8.8098 O.3    31  RES3131    -0.3864
    252 H150        5.6693   -1.1845    8.6276 H      31  RES3131     0.2100
    253 C107        6.9697    0.1174    8.4842 C.3    31  RES3131     0.1144
    254 H151        6.9504    1.0366    8.0888 H      31  RES3131     0.0648
    255 C108        7.8812    0.0945    9.6876 C.3    31  RES3131     0.1184
    256 H152        7.8291   -0.8000   10.1338 H      31  RES3131     0.0651
    257 O119        8.9280    0.7999    6.5450 O.3    31  RES3131    -0.3401
    258 O120        9.7554   -0.4906    8.2711 O.3    31  RES3131    -0.3405
    259 C109        9.3272    0.4000    9.3110 C.3    31  RES3131     0.1134
    260 H153        9.3890    1.3431    8.9827 H      31  RES3131     0.0647
    261 O121       10.2137   -1.0659   11.0585 O.3    31  RES3131    -0.3924
    262 H154       10.9081   -1.5066   10.8829 H      31  RES3131     0.2095
    263 C110       10.3061    0.2051   10.4689 C.3    31  RES3131     0.0730
    264 H155       11.2282    0.3414   10.1352 H      31  RES3131     0.0584
    265 H156       10.1305    0.8943   11.1577 H      31  RES3131     0.0584
    266 C111        7.1339    0.7887   11.9510 C.3    31  RES3131     0.1884
    267 H157        7.2445   -0.1973   12.0743 H      31  RES3131     0.0938
    268 O122        4.8679    0.4325   11.3506 O.3    31  RES3131    -0.3841
    269 H158        4.0696    0.6467   11.5021 H      31  RES3131     0.2101
    270 C112        5.7150    1.1527   12.2083 C.3    31  RES3131     0.1341
    271 H159        5.4952    0.8964   13.1490 H      31  RES3131     0.0671
    272 O123        4.2042    3.0322   12.4053 O.3    31  RES3131    -0.3864
    273 H160        3.8485    2.3918   12.6157 H      31  RES3131     0.2100
    274 C113        5.5228    2.6561   12.0689 C.3    31  RES3131     0.1144
    275 H161        5.7277    2.9403   11.1309 H      31  RES3131     0.0648
    276 C114        6.4898    3.3335   13.0378 C.3    31  RES3131     0.1184
    277 H162        6.2418    3.1024   13.9799 H      31  RES3131     0.0651
    278 O124        7.4199    1.1192   10.5935 O.3    31  RES3131    -0.3401
    279 O125        8.0246    1.4586   12.8100 O.3    31  RES3131    -0.3405
    280 C115        7.9386    2.8966   12.7591 C.3    31  RES3131     0.1134
    281 H163        8.2246    3.2228   11.8572 H      31  RES3131     0.0647
    282 O126        8.6056    2.8132   15.0949 O.3    31  RES3131    -0.3924
    283 H164        7.9423    2.3034   15.0319 H      31  RES3131     0.2095
    284 C116        8.9023    3.3759   13.8017 C.3    31  RES3131     0.0730
    285 H165        9.8211    3.1227   13.5390 H      31  RES3131     0.0584
    286 H166        8.8605    4.3635   13.8580 H      31  RES3131     0.0584
@<TRIPOS>BOND
     1     1     2    1
     2     3     4    1
     3     5     1    1
     4     6     5    1
     5     7     8    1
     6     9     5    1
     7    10     9    1
     8    11     9    1
     9    12    11    1
    10    13     1    1
    11    14     1    1
    12    15    11    1
    13    16    15    1
    14    17    18    1
    15    19    15    1
    16    20    19    1
    17    21    19    1
    18    22    23    1
    19    24    25    1
    20    26    22    1
    21    27    26    1
    22    28    29    1
    23    30    26    1
    24    31    30    1
    25    32    30    1
    26    33    32    1
    27    34    11    1
    28    35    22    1
    29    36    32    1
    30    37    36    1
    31    38    39    1
    32    40    36    1
    33    41    40    1
    34    42    40    1
    35    43    44    1
    36    45    46    1
    37    47    43    1
    38    48    47    1
    39    49    50    1
    40    51    47    1
    41    52    51    1
    42    53    51    1
    43    54    53    1
    44    55    32    1
    45    56    43    1
    46    57    53    1
    47    58    57    1
    48    59    60    1
    49    61    57    1
    50    62    63    1
    51    64    65    1
    52    66    62    1
    53    67    66    1
    54    68    69    1
    55    70    66    1
    56    71    70    1
    57    72    70    1
    58    73    72    1
    59    74    53    1
    60    75    62    1
    61    76    72    1
    62    77    76    1
    63    78    79    1
    64    80    76    1
    65    81    80    1
    66    82    80    1
    67    83    84    1
    68    85    86    1
    69    87    83    1
    70    88    87    1
    71    89    90    1
    72    91    87    1
    73    92    91    1
    74    93    91    1
    75    94    93    1
    76    95    72    1
    77    96    83    1
    78    97    93    1
    79    98    97    1
    80    99   100    1
    81   101    97    1
    82   102   103    1
    83   104   105    1
    84   106   102    1
    85   107   106    1
    86   108   109    1
    87   110   106    1
    88   111   110    1
    89   112   110    1
    90   113   112    1
    91   114    93    1
    92   115   102    1
    93   116   112    1
    94   117   116    1
    95   118   119    1
    96   120   116    1
    97   121   120    1
    98   122   120    1
    99   123   124    1
   100   125   126    1
   101   127   123    1
   102   128   127    1
   103   129   130    1
   104   131   127    1
   105   132   131    1
   106   133    13    1
   107   134   133    1
   108   135   112    1
   109   136   123    1
   110   137   133    1
   111   138   137    1
   112   139   140    1
   113   141   137    1
   114   142   141    1
   115   143   141    1
   116     3     5    1
   117     7     9    1
   118    14    15    1
   119    17    19    1
   120    22    34    1
   121    24    26    1
   122    28    30    1
   123    35    36    1
   124    38    40    1
   125    43    55    1
   126    45    47    1
   127    49    51    1
   128    56    57    1
   129    59    61    1
   130    62    74    1
   131    64    66    1
   132    68    70    1
   133    75    76    1
   134    78    80    1
   135    83    95    1
   136    85    87    1
   137    89    91    1
   138    96    97    1
   139    99   101    1
   140   102   114    1
   141   104   106    1
   142   108   110    1
   143   115   116    1
   144   118   120    1
   145   123   135    1
   146   125   127    1
   147   129   131    1
   148   131   133    1
   149   136   137    1
   150   139   141    1
   151   144   145    1
   152   146   147    1
   153   148   144    1
   154   149   148    1
   155   150   151    1
   156   152   148    1
   157   153   152    1
   158   154   152    1
   159   155   154    1
   160   156   144    1
   161   157   144    1
   162   158   154    1
   163   159   158    1
   164   160   161    1
   165   162   158    1
   166   163   162    1
   167   164   162    1
   168   165   166    1
   169   167   168    1
   170   169   165    1
   171   170   169    1
   172   171   172    1
   173   173   169    1
   174   174   173    1
   175   175   173    1
   176   176   175    1
   177   177   154    1
   178   178   165    1
   179   179   175    1
   180   180   179    1
   181   181   182    1
   182   183   179    1
   183   184   183    1
   184   185   183    1
   185   186   187    1
   186   188   189    1
   187   190   186    1
   188   191   190    1
   189   192   190    1
   190   193   192    1
   191   194   192    1
   192   195   194    1
   193   196   175    1
   194   197   186    1
   195   198   194    1
   196   199   198    1
   197   200   201    1
   198   202   198    1
   199   203   202    1
   200   204   202    1
   201   205   206    1
   202   207   208    1
   203   209   205    1
   204   210   209    1
   205   211   212    1
   206   213   209    1
   207   214   213    1
   208   215   213    1
   209   216   215    1
   210   217   194    1
   211   218   205    1
   212   219   215    1
   213   220   219    1
   214   221   222    1
   215   223   219    1
   216   224   223    1
   217   225   223    1
   218   226   227    1
   219   228   229    1
   220   230   226    1
   221   231   230    1
   222   232   233    1
   223   234   230    1
   224   235   234    1
   225   236   234    1
   226   237   236    1
   227   238   215    1
   228   239   226    1
   229   240   236    1
   230   241   240    1
   231   242   243    1
   232   244   240    1
   233   245   246    1
   234   247   248    1
   235   249   245    1
   236   250   249    1
   237   251   252    1
   238   253   249    1
   239   254   253    1
   240   255   253    1
   241   256   255    1
   242   257   236    1
   243   258   245    1
   244   259   255    1
   245   260   259    1
   246   261   262    1
   247   263   259    1
   248   264   263    1
   249   265   263    1
   250   266   267    1
   251   268   269    1
   252   270   266    1
   253   271   270    1
   254   272   273    1
   255   274   270    1
   256   275   274    1
   257   276   156    1
   258   277   276    1
   259   278   255    1
   260   279   266    1
   261   280   276    1
   262   281   280    1
   263   282   283    1
   264   284   280    1
   265   285   284    1
   266   286   284    1
   267   146   148    1
   268   150   152    1
   269   157   158    1
   270   160   162    1
   271   165   177    1
   272   167   169    1
   273   171   173    1
   274   178   179    1
   275   181   183    1
   276   186   196    1
   277   188   190    1
   278   197   198    1
   279   200   202    1
   280   205   217    1
   281   207   209    1
   282   211   213    1
   283   218   219    1
   284   221   223    1
   285   226   238    1
   286   228   230    1
   287   232   234    1
   288   239   240    1
   289   242   244    1
   290   245   257    1
   291   247   249    1
   292   251   253    1
   293   258   259    1
   294   261   263    1
   295   266   278    1
   296   268   270    1
   297   272   274    1
   298   274   276    1
   299   279   280    1
   300   282   284    1
