@<TRIPOS>MOLECULE
*****
 582 600 0 0 0
SMALL
GASTEIGER

@<TRIPOS>ATOM
      1 C1          2.9742   11.6774    9.3114 C.3     6  RES66       0.0162
      2 H1          2.5149   12.3805    8.8072 H       6  RES66       0.0399
      3 C2          4.3604   12.2401    9.6829 C.ar    6  RES66       0.0031
      4 C3          4.5154   13.5743    9.9538 C.ar    6  RES66       0.1423
      5 C4          5.7123   14.0926   10.3343 C.ar    6  RES66       0.0240
      6 H2          5.7936   15.0040   10.5029 H       6  RES66       0.0691
      7 C5          6.8106   13.2609   10.4653 C.ar    6  RES66       0.1423
      8 C6          6.7466   11.9255   10.1297 C.ar    6  RES66       0.0031
      9 C7          7.9810   11.0445   10.2517 C.3     6  RES66       0.0162
     10 H3          8.5564   11.4761   10.9175 H       6  RES66       0.0399
     11 C8          8.8145   10.9400    8.9741 C.ar    6  RES66       0.0031
     12 C9         10.1305   11.3491    8.9400 C.ar    6  RES66       0.1423
     13 C10        10.9466   11.1441    7.8382 C.ar    6  RES66       0.0240
     14 H4         11.8220   11.4592    7.8256 H       6  RES66       0.0691
     15 C11        10.4278   10.4702    6.7687 C.ar    6  RES66       0.1423
     16 C12         9.1230   10.0041    6.7202 C.ar    6  RES66       0.0031
     17 C13         8.6350    9.1442    5.5628 C.3     6  RES66       0.0162
     18 H5          9.3760    9.0956    4.9222 H       6  RES66       0.0399
     19 C14         7.4756    9.7896    4.8307 C.ar    6  RES66       0.0031
     20 C15         7.7385   10.7287    3.8599 C.ar    6  RES66       0.1423
     21 C16         6.7442   11.3240    3.1206 C.ar    6  RES66       0.0240
     22 H6          6.9475   11.9575    2.4728 H       6  RES66       0.0691
     23 C17         5.4458   10.9618    3.3646 C.ar    6  RES66       0.1423
     24 C18         5.0825   10.0778    4.3605 C.ar    6  RES66       0.0031
     25 C19         3.6147    9.8209    4.6207 C.3     6  RES66       0.0162
     26 H7          3.1384   10.6387    4.3641 H       6  RES66       0.0399
     27 C20         3.0026    8.6749    3.7917 C.ar    6  RES66       0.0031
     28 C21         1.8061    8.8814    3.0793 C.ar    6  RES66       0.1423
     29 C22         1.0950    7.8216    2.5643 C.ar    6  RES66       0.0240
     30 H8          0.3092    7.9653    2.0887 H       6  RES66       0.0691
     31 C23         1.5648    6.5513    2.7670 C.ar    6  RES66       0.1423
     32 C24         2.7787    6.2694    3.3987 C.ar    6  RES66       0.0031
     33 C25         3.1822    4.8615    3.7666 C.3     6  RES66       0.0162
     34 H9          2.5656    4.2574    3.3018 H       6  RES66       0.0399
     35 C26         4.5845    4.5073    3.3018 C.ar    6  RES66       0.0031
     36 C27         4.8180    4.2064    1.9542 C.ar    6  RES66       0.1423
     37 C28         6.0547    3.8092    1.4948 C.ar    6  RES66       0.0240
     38 H10         6.1802    3.6108    0.5958 H       6  RES66       0.0691
     39 C29         7.0875    3.7124    2.3687 C.ar    6  RES66       0.1423
     40 C30         6.9680    4.0616    3.7127 C.ar    6  RES66       0.0031
     41 C31         8.2046    4.0907    4.6261 C.3     6  RES66       0.0162
     42 H11         8.9827    4.1990    4.0411 H       6  RES66       0.0399
     43 C32         8.4328    2.8115    5.4300 C.ar    6  RES66       0.0031
     44 C33         9.6127    2.0929    5.3044 C.ar    6  RES66       0.1423
     45 C34         9.9621    1.1007    6.1765 C.ar    6  RES66       0.0240
     46 H12        10.7529    0.6287    6.0545 H       6  RES66       0.0691
     47 C35         9.1315    0.8049    7.2388 C.ar    6  RES66       0.1423
     48 C36         2.1141   11.3996   10.5514 C.ar    6  RES66       0.0031
     49 C37         5.4948   11.4448    9.7529 C.ar    6  RES66      -0.0472
     50 H13         5.4147   10.5423    9.5393 H       6  RES66       0.0626
     51 C38         8.3454   10.2675    7.8328 C.ar    6  RES66      -0.0472
     52 H14         7.4591    9.9858    7.8238 H       6  RES66       0.0626
     53 C39         6.1330    9.4802    5.0693 C.ar    6  RES66      -0.0472
     54 H15         5.9300    8.8538    5.7243 H       6  RES66       0.0626
     55 C40         3.4732    7.3854    3.8886 C.ar    6  RES66      -0.0472
     56 H16         4.2948    7.2455    4.3013 H       6  RES66       0.0626
     57 C41         5.6973    4.4331    4.1362 C.ar    6  RES66      -0.0472
     58 H17         5.5833    4.6478    5.0334 H       6  RES66       0.0626
     59 C42         7.5805    2.4151    6.4690 C.ar    6  RES66      -0.0472
     60 H18         6.7523    2.8309    6.5372 H       6  RES66       0.0626
     61 C43         2.9958   10.4585    8.4214 C.3     6  RES66      -0.0419
     62 H19         2.0904   10.1209    8.3316 H       6  RES66       0.0274
     63 H20         3.5266    9.7685    8.8484 H       6  RES66       0.0274
     64 C44         3.5653   10.7216    7.0217 C.3     6  RES66      -0.0514
     65 H21         3.1725   11.5301    6.6592 H       6  RES66       0.0266
     66 H22         4.5246   10.8519    7.0809 H       6  RES66       0.0266
     67 C45         3.2667    9.5537    6.0993 C.3     6  RES66      -0.0419
     68 H23         2.3245    9.3384    6.1639 H       6  RES66       0.0274
     69 H24         3.7680    8.7810    6.4026 H       6  RES66       0.0274
     70 C46         8.4036    7.7215    6.0599 C.3     6  RES66      -0.0419
     71 H25         7.6035    7.7183    6.6090 H       6  RES66       0.0274
     72 H26         9.1476    7.4727    6.6287 H       6  RES66       0.0274
     73 C47         8.2472    6.6515    4.9688 C.3     6  RES66      -0.0514
     74 H27         7.4267    6.8078    4.4754 H       6  RES66       0.0266
     75 H28         8.9900    6.7088    4.3480 H       6  RES66       0.0266
     76 C48         8.2100    5.2738    5.5861 C.3     6  RES66      -0.0419
     77 H29         7.4172    5.2133    6.1424 H       6  RES66       0.0274
     78 H30         8.9793    5.1837    6.1693 H       6  RES66       0.0274
     79 C49         2.9292    4.6886    5.2649 C.3     6  RES66      -0.0419
     80 H31         3.6240    5.1597    5.7512 H       6  RES66       0.0274
     81 H32         2.0833    5.1082    5.4856 H       6  RES66       0.0274
     82 C50         2.8924    3.2412    5.7494 C.3     6  RES66      -0.0514
     83 H33         3.7912    2.8715    5.7512 H       6  RES66       0.0266
     84 H34         2.3467    2.7061    5.1519 H       6  RES66       0.0266
     85 C51         7.7003    9.6540   10.7775 C.3     6  RES66      -0.0419
     86 H35         8.5278    9.1465   10.7667 H       6  RES66       0.0274
     87 H36         7.0807    9.2145   10.1745 H       6  RES66       0.0274
     88 C52         2.9727   15.1998   10.7219 C.2     6  RES66       0.5161
     89 C53         1.2414   16.8715   11.1507 C.3     6  RES66       0.1086
     90 C54         2.0284   18.0608   11.3966 C.3     6  RES66      -0.0253
     91 H37         2.3061   18.4390   10.5586 H       6  RES66       0.0268
     92 H38         2.8024   17.8326   11.9152 H       6  RES66       0.0268
     93 H39         1.4996   18.7025   11.8757 H       6  RES66       0.0268
     94 C55         0.0765   17.3305   10.3002 C.3     6  RES66      -0.0253
     95 H40        -0.4993   16.5845   10.1171 H       6  RES66       0.0268
     96 H41         0.4075   17.6911    9.4729 H       6  RES66       0.0268
     97 H42        -0.4156   18.0088   10.7703 H       6  RES66       0.0268
     98 C56         0.6692   16.1047   12.3405 C.3     6  RES66      -0.0253
     99 H43         0.1370   15.3723   12.0210 H       6  RES66       0.0268
    100 H44         0.1242   16.6913   12.8680 H       6  RES66       0.0268
    101 H45         1.3895   15.7658   12.8788 H       6  RES66       0.0268
    102 C57         8.2354   13.9647   12.2256 C.2     6  RES66       0.5161
    103 C58         7.1147   13.6991   14.3664 C.3     6  RES66       0.1086
    104 C59         7.1302   15.1631   14.6714 C.3     6  RES66      -0.0253
    105 H46         8.0012   15.5196   14.4848 H       6  RES66       0.0268
    106 H47         6.9214   15.2982   15.5992 H       6  RES66       0.0268
    107 H48         6.4778   15.6095   14.1277 H       6  RES66       0.0268
    108 C60         8.2602   12.8885   15.0285 C.3     6  RES66      -0.0253
    109 H49         8.1836   11.9635   14.7809 H       6  RES66       0.0268
    110 H50         8.1997   12.9686   15.9832 H       6  RES66       0.0268
    111 H51         9.1086   13.2291   14.7325 H       6  RES66       0.0268
    112 C61         5.7474   13.0484   14.6409 C.3     6  RES66      -0.0253
    113 H52         5.7930   12.1119   14.4346 H       6  RES66       0.0268
    114 H53         5.0802   13.4655   14.0918 H       6  RES66       0.0268
    115 H54         5.5201   13.1626   15.5669 H       6  RES66       0.0268
    116 C62        11.4496   13.0159    9.9484 C.2     6  RES66       0.5161
    117 C63        13.0292   14.3067   11.2333 C.3     6  RES66       0.1086
    118 C64        12.2522   15.5947   11.0825 C.3     6  RES66      -0.0253
    119 H55        11.9532   15.6826   10.1745 H       6  RES66       0.0268
    120 H56        12.8171   16.3370   11.3068 H       6  RES66       0.0268
    121 H57        11.4919   15.5794   11.6693 H       6  RES66       0.0268
    122 C65        14.1610   14.1801   10.2302 C.3     6  RES66      -0.0253
    123 H58        13.8267   14.3434    9.3455 H       6  RES66       0.0268
    124 H59        14.5302   13.2953   10.2732 H       6  RES66       0.0268
    125 H60        14.8450   14.8218   10.4365 H       6  RES66       0.0268
    126 C66        13.5744   14.0375   12.6491 C.3     6  RES66      -0.0253
    127 H61        12.8618   14.1297   13.2879 H       6  RES66       0.0268
    128 H62        14.2681   14.6695   12.8501 H       6  RES66       0.0268
    129 H63        13.9285   13.1468   12.6922 H       6  RES66       0.0268
    130 C67        12.1083    9.3267    5.6077 C.2     6  RES66       0.5161
    131 C68        14.0613    8.6362    4.2995 C.3     6  RES66       0.1086
    132 C69        13.3908    7.4718    3.6302 C.3     6  RES66      -0.0253
    133 H64        12.8726    7.7860    2.8855 H       6  RES66       0.0268
    134 H65        12.8148    7.0292    4.2582 H       6  RES66       0.0268
    135 H66        14.0570    6.8558    3.3179 H       6  RES66       0.0268
    136 C70        14.8909    8.2135    5.5036 C.3     6  RES66      -0.0253
    137 H67        14.3420    7.7158    6.1119 H       6  RES66       0.0268
    138 H68        15.2324    8.9935    5.9468 H       6  RES66       0.0268
    139 H69        15.6228    7.6664    5.2111 H       6  RES66       0.0268
    140 C71        14.8728    9.4215    3.2856 C.3     6  RES66      -0.0253
    141 H70        14.3161    9.6492    2.5374 H       6  RES66       0.0268
    142 H71        15.6121    8.8875    2.9842 H       6  RES66       0.0268
    143 H72        15.2043   10.2246    3.6930 H       6  RES66       0.0268
    144 C72         9.4801   12.3329    3.8563 C.2     6  RES66       0.5161
    145 C73        11.5092   13.6330    3.7361 C.3     6  RES66       0.1086
    146 C74        11.5509   13.8344    5.2201 C.3     6  RES66      -0.0253
    147 H73        10.6772   14.0781    5.5359 H       6  RES66       0.0268
    148 H74        12.1731   14.5353    5.4300 H       6  RES66       0.0268
    149 H75        11.8290   13.0195    5.6471 H       6  RES66       0.0268
    150 C75        12.8687   13.2472    3.1780 C.3     6  RES66      -0.0253
    151 H76        12.8024   13.1267    2.2269 H       6  RES66       0.0268
    152 H77        13.1619   12.4266    3.5835 H       6  RES66       0.0268
    153 H78        13.5019   13.9417    3.3682 H       6  RES66       0.0268
    154 C76        10.8889   14.7758    2.9052 C.3     6  RES66      -0.0253
    155 H79        10.9080   14.5419    1.9757 H       6  RES66       0.0268
    156 H80        11.3914   15.5828    3.0452 H       6  RES66       0.0268
    157 H81         9.9803   14.9151    3.1816 H       6  RES66       0.0268
    158 C77         4.1700   11.0384    1.3907 C.2     6  RES66       0.5161
    159 C78         4.8961    9.3183   -0.1777 C.3     6  RES66       0.1086
    160 C79         5.2864   10.2916   -1.2507 C.3     6  RES66      -0.0253
    161 H82         6.1603   10.6425   -1.0605 H       6  RES66       0.0268
    162 H83         4.6517   11.0103   -1.2777 H       6  RES66       0.0268
    163 H84         5.2996    9.8440   -2.0995 H       6  RES66       0.0268
    164 C80         3.5292    8.6465   -0.2979 C.3     6  RES66      -0.0253
    165 H85         2.8539    9.3167   -0.4253 H       6  RES66       0.0268
    166 H86         3.3426    8.1541    0.5060 H       6  RES66       0.0268
    167 H87         3.5322    8.0471   -1.0480 H       6  RES66       0.0268
    168 C81         5.9967    8.2889    0.0126 C.3     6  RES66      -0.0253
    169 H88         6.8420    8.7371    0.0987 H       6  RES66       0.0268
    170 H89         6.0210    7.7025   -0.7465 H       6  RES66       0.0268
    171 H90         5.8243    7.7770    0.8057 H       6  RES66       0.0268
    172 C82         0.7175   10.6515    1.9057 C.2     6  RES66       0.5161
    173 C83        -0.1413   12.7776    1.0874 C.3     6  RES66       0.1086
    174 C84         0.2116   14.1907    1.6024 C.3     6  RES66      -0.0253
    175 H91        -0.1626   14.3159    2.4781 H       6  RES66       0.0268
    176 H92        -0.1477   14.8491    1.0031 H       6  RES66       0.0268
    177 H93         1.1666   14.2873    1.6473 H       6  RES66       0.0268
    178 C85         0.4379   12.5973   -0.2907 C.3     6  RES66      -0.0253
    179 H94         1.3743   12.8100   -0.2746 H       6  RES66       0.0268
    180 H95        -0.0130   13.1810   -0.9044 H       6  RES66       0.0268
    181 H96         0.3192   11.6863   -0.5706 H       6  RES66       0.0268
    182 C86        -1.6120   12.4701    1.1215 C.3     6  RES66      -0.0253
    183 H97        -1.9452   12.5990    2.0134 H       6  RES66       0.0268
    184 H98        -1.7547   11.5576    0.8560 H       6  RES66       0.0268
    185 H99        -2.0755   13.0556    0.5186 H       6  RES66       0.0268
    186 C87        -0.1003    4.9911    3.2085 C.2     6  RES66       0.5161
    187 C88        -1.6639    3.1664    3.4741 C.3     6  RES66       0.1086
    188 C89        -2.8627    4.0082    3.8509 C.3     6  RES66      -0.0253
    189 H100       -2.5939    4.6882    4.4736 H       6  RES66       0.0268
    190 H101       -3.5317    3.4512    4.2564 H       6  RES66       0.0268
    191 H102       -3.2247    4.4217    3.0649 H       6  RES66       0.0268
    192 C90        -2.0922    2.1013    2.4907 C.3     6  RES66      -0.0253
    193 H103       -1.3352    1.5607    2.2538 H       6  RES66       0.0268
    194 H104       -2.4485    2.5174    1.7029 H       6  RES66       0.0268
    195 H105       -2.7648    1.5482    2.8909 H       6  RES66       0.0268
    196 C91        -0.9399    2.5760    4.7248 C.3     6  RES66      -0.0253
    197 H106       -0.1947    2.0412    4.4413 H       6  RES66       0.0268
    198 H107       -1.5541    2.0312    5.2237 H       6  RES66       0.0268
    199 H108       -0.6244    3.2925    5.2811 H       6  RES66       0.0268
    200 C92         3.1330    3.2627    0.6550 C.2     6  RES66       0.5161
    201 C93         1.6233    2.4471   -1.0462 C.3     6  RES66       0.1086
    202 C94         1.1808    3.0913   -2.3471 C.3     6  RES66      -0.0253
    203 H109        1.9483    3.2475   -2.9034 H       6  RES66       0.0268
    204 H110        0.7466    3.9258   -2.1605 H       6  RES66       0.0268
    205 H111        0.5716    2.5073   -2.8029 H       6  RES66       0.0268
    206 C95         0.4952    2.1526   -0.1131 C.3     6  RES66      -0.0253
    207 H112       -0.0233    2.9504    0.0251 H       6  RES66       0.0268
    208 H113        0.8441    1.8491    0.7285 H       6  RES66       0.0268
    209 H114       -0.0635    1.4696   -0.4917 H       6  RES66       0.0268
    210 C96         2.5228    1.2510   -1.3315 C.3     6  RES66      -0.0253
    211 H115        3.2262    1.5163   -1.9290 H       6  RES66       0.0268
    212 H116        2.0063    0.5507   -1.7370 H       6  RES66       0.0268
    213 H117        2.9043    0.9315   -0.5096 H       6  RES66       0.0268
    214 C97         9.0820    4.1418    1.2148 C.2     6  RES66       0.5161
    215 C98        11.1733    4.2237    0.0502 C.3     6  RES66       0.1086
    216 C99        10.6425    4.9399   -1.1556 C.3     6  RES66      -0.0253
    217 H118       10.2581    4.3027   -1.7622 H       6  RES66       0.0268
    218 H119       11.3577    5.4048   -1.5917 H       6  RES66       0.0268
    219 H120        9.9700    5.5686   -0.8829 H       6  RES66       0.0268
    220 C100       11.8278    5.0974    1.1179 C.3     6  RES66      -0.0253
    221 H121       12.1312    4.5433    1.8411 H       6  RES66       0.0268
    222 H122       11.1891    5.7327    1.4463 H       6  RES66       0.0268
    223 H123       12.5745    5.5618    0.7357 H       6  RES66       0.0268
    224 C101       12.1408    3.1388   -0.3499 C.3     6  RES66      -0.0253
    225 H124       12.4729    2.6992    0.4378 H       6  RES66       0.0268
    226 H125       12.8753    3.5273   -0.8326 H       6  RES66       0.0268
    227 H126       11.6923    2.5011   -0.9080 H       6  RES66       0.0268
    228 C102       10.8648    1.5157    3.3718 C.2     6  RES66       0.5161
    229 C103       10.0213   -0.4763    2.2664 C.3     6  RES66       0.1086
    230 C104       11.1002   -1.3943    2.7922 C.3     6  RES66      -0.0253
    231 H127       11.9545   -0.9653    2.7096 H       6  RES66       0.0268
    232 H128       11.1007   -2.2095    2.2861 H       6  RES66       0.0268
    233 H129       10.9287   -1.5918    3.7163 H       6  RES66       0.0268
    234 C105       10.3295    0.0146    0.8631 C.3     6  RES66      -0.0253
    235 H130        9.6260    0.5960    0.5653 H       6  RES66       0.0268
    236 H131       10.3992   -0.7347    0.2692 H       6  RES66       0.0268
    237 H132       11.1605    0.4968    0.8685 H       6  RES66       0.0268
    238 C106        8.6392   -1.0962    2.3687 C.3     6  RES66      -0.0253
    239 H133        7.9860   -0.4799    2.0241 H       6  RES66       0.0268
    240 H134        8.4415   -1.2897    3.2874 H       6  RES66       0.0268
    241 H135        8.6135   -1.9074    1.8573 H       6  RES66       0.0268
    242 C107       10.1933    0.4531    9.2809 C.2     6  RES66       0.5161
    243 C108       10.9858   -0.2580   11.4540 C.3     6  RES66       0.1086
    244 C109       10.9419   -1.6791   12.1197 C.3     6  RES66      -0.0253
    245 H136       10.0295   -1.9579   12.2184 H       6  RES66       0.0268
    246 H137       11.3594   -1.6391   12.9829 H       6  RES66       0.0268
    247 H138       11.4109   -2.3064   11.5653 H       6  RES66       0.0268
    248 C110       12.3794    0.2489   11.2566 C.3     6  RES66      -0.0253
    249 H139       12.3487    1.1183   10.8511 H       6  RES66       0.0268
    250 H140       12.8609   -0.3548   10.6860 H       6  RES66       0.0268
    251 H141       12.8207    0.3072   12.1072 H       6  RES66       0.0268
    252 C111       10.0345    0.6885   12.1897 C.3     6  RES66      -0.0253
    253 H142       10.0784    1.5598   11.7896 H       6  RES66       0.0268
    254 H143       10.2931    0.7468   13.1139 H       6  RES66       0.0268
    255 H144        9.1379    0.3539   12.1287 H       6  RES66       0.0268
    256 O1          3.4172   14.4380    9.7313 O.3     6  RES66      -0.3944
    257 O2          3.4157   15.1939   11.8237 O.2     6  RES66      -0.2024
    258 O3          1.9869   15.9406   10.2840 O.3     6  RES66      -0.4278
    259 O4          8.0323   13.7958   10.8852 O.3     6  RES66      -0.3944
    260 O5          7.2063   13.4929   12.9007 O.3     6  RES66      -0.4278
    261 O6          9.2371   14.4575   12.6222 O.2     6  RES66      -0.2024
    262 O7         10.6802   11.9154   10.1094 O.3     6  RES66      -0.3944
    263 O8         12.0953   13.1705   11.0860 O.3     6  RES66      -0.4278
    264 O9         11.4947   13.7013    8.9776 O.2     6  RES66      -0.2024
    265 O10        11.2957   10.3688    5.6509 O.3     6  RES66      -0.3944
    266 O11        13.0191    9.6024    4.6728 O.3     6  RES66      -0.4278
    267 O12        11.9988    8.3449    6.2680 O.2     6  RES66      -0.2024
    268 O13         9.0673   11.0460    3.5740 O.3     6  RES66      -0.3944
    269 O14        10.7218   12.3988    3.4274 O.3     6  RES66      -0.4278
    270 O15         8.8209   13.1190    4.4144 O.2     6  RES66      -0.2024
    271 O16         4.4192   11.5754    2.6077 O.3     6  RES66      -0.3944
    272 O17         4.9532   10.0262    1.1255 O.3     6  RES66      -0.4278
    273 O18         3.3224   11.5368    0.7124 O.2     6  RES66      -0.2024
    274 O19         1.3337   10.1985    3.0287 O.3     6  RES66      -0.3944
    275 O20         0.5257   11.9547    2.1236 O.3     6  RES66      -0.4278
    276 O21         0.4220   10.0073    0.9561 O.2     6  RES66      -0.2024
    277 O22         0.7869    5.4757    2.2913 O.3     6  RES66      -0.3944
    278 O23        -0.6832    3.9511    2.6612 O.3     6  RES66      -0.4278
    279 O24        -0.2878    5.4768    4.2852 O.2     6  RES66      -0.2024
    280 O25         3.7877    4.4005    1.0128 O.3     6  RES66      -0.3944
    281 O26         2.4756    3.5322   -0.4418 O.3     6  RES66      -0.4278
    282 O27         3.1692    2.2652    1.3207 O.2     6  RES66      -0.2024
    283 O28         8.3163    3.2356    1.8853 O.3     6  RES66      -0.3944
    284 O29        10.0783    3.4785    0.6993 O.3     6  RES66      -0.4278
    285 O30         8.8206    5.3044    1.1861 O.2     6  RES66      -0.2024
    286 O31        10.5506    2.4421    4.3083 O.3     6  RES66      -0.3944
    287 O32         9.8917    0.6729    3.2022 O.3     6  RES66      -0.4278
    288 O33        11.9236    1.5729    2.7931 O.2     6  RES66      -0.2024
    289 O34         9.5557   -0.1405    8.1793 O.3     6  RES66      -0.3944
    290 O35        10.3980   -0.5637   10.1297 O.3     6  RES66      -0.4278
    291 O36        10.4767    1.5734    9.3814 O.2     6  RES66      -0.2024
    292 C1A         7.0355    1.1685    8.6331 C.3     6  RES66       0.0162
    293 H1A         7.4948    0.4655    9.1374 H       6  RES66       0.0399
    294 C2A         5.6492    0.6059    8.2617 C.ar    6  RES66       0.0031
    295 C3A         5.4943   -0.7283    7.9907 C.ar    6  RES66       0.1423
    296 C4A         4.2974   -1.2466    7.6103 C.ar    6  RES66       0.0240
    297 H2A         4.2161   -2.1581    7.4416 H       6  RES66       0.0691
    298 C5A         3.1991   -0.4150    7.4793 C.ar    6  RES66       0.1423
    299 C6A         3.2631    0.9205    7.8148 C.ar    6  RES66       0.0031
    300 C7A         2.0286    1.8015    7.6928 C.3     6  RES66       0.0162
    301 H3A         1.4533    1.3698    7.0271 H       6  RES66       0.0399
    302 C8A         1.1952    1.9059    8.9705 C.ar    6  RES66       0.0031
    303 C9A        -0.1208    1.4969    9.0046 C.ar    6  RES66       0.1423
    304 C10A       -0.9369    1.7019   10.1064 C.ar    6  RES66       0.0240
    305 H4A        -1.8124    1.3868   10.1189 H       6  RES66       0.0691
    306 C11A       -0.4181    2.3758   11.1759 C.ar    6  RES66       0.1423
    307 C12A        0.8866    2.8419   11.2243 C.ar    6  RES66       0.0031
    308 C13A        1.3747    3.7017   12.3817 C.3     6  RES66       0.0162
    309 H5A         0.6337    3.7503   13.0223 H       6  RES66       0.0399
    310 C14A        2.5341    3.0564   13.1139 C.ar    6  RES66       0.0031
    311 C15A        2.2712    2.1172   14.0847 C.ar    6  RES66       0.1423
    312 C16A        3.2655    1.5220   14.8240 C.ar    6  RES66       0.0240
    313 H6A         3.0622    0.8885   15.4718 H       6  RES66       0.0691
    314 C17A        4.5638    1.8841   14.5799 C.ar    6  RES66       0.1423
    315 C18A        4.9272    2.7682   13.5840 C.ar    6  RES66       0.0031
    316 C19A        6.3950    3.0251   13.3238 C.3     6  RES66       0.0162
    317 H7A         6.8712    2.2073   13.5804 H       6  RES66       0.0399
    318 C20A        7.0070    4.1711   14.1529 C.ar    6  RES66       0.0031
    319 C21A        8.2035    3.9646   14.8652 C.ar    6  RES66       0.1423
    320 C22A        8.9147    5.0244   15.3803 C.ar    6  RES66       0.0240
    321 H8A         9.7004    4.8806   15.8558 H       6  RES66       0.0691
    322 C23A        8.4448    6.2947   15.1775 C.ar    6  RES66       0.1423
    323 C24A        7.2310    6.5766   14.5458 C.ar    6  RES66       0.0031
    324 C25A        6.8275    7.9845   14.1780 C.3     6  RES66       0.0162
    325 H9A         7.4441    8.5885   14.6427 H       6  RES66       0.0399
    326 C26A        5.4252    8.3386   14.6427 C.ar    6  RES66       0.0031
    327 C27A        5.1917    8.6396   15.9904 C.ar    6  RES66       0.1423
    328 C28A        3.9550    9.0368   16.4498 C.ar    6  RES66       0.0240
    329 H10A        3.8295    9.2352   17.3488 H       6  RES66       0.0691
    330 C29A        2.9222    9.1335   15.5759 C.ar    6  RES66       0.1423
    331 C30A        3.0417    8.7844   14.2318 C.ar    6  RES66       0.0031
    332 C31A        1.8051    8.7553   13.3184 C.3     6  RES66       0.0162
    333 H11A        1.0270    8.6469   13.9034 H       6  RES66       0.0399
    334 C32A        1.5769   10.0345   12.5145 C.ar    6  RES66       0.0031
    335 C33A        0.3970   10.7531   12.6401 C.ar    6  RES66       0.1423
    336 C34A        0.0476   11.7453   11.7680 C.ar    6  RES66       0.0240
    337 H12A       -0.7433   12.2173   11.8900 H       6  RES66       0.0691
    338 C35A        0.8782   12.0411   10.7057 C.ar    6  RES66       0.1423
    339 C36A        7.8956    1.4464    7.3931 C.ar    6  RES66       0.0031
    340 C37A        4.5149    1.4011    8.1917 C.ar    6  RES66      -0.0472
    341 H13A        4.5950    2.3037    8.4052 H       6  RES66       0.0626
    342 C38A        1.6643    2.5785   10.1117 C.ar    6  RES66      -0.0472
    343 H14A        2.5506    2.8602   10.1207 H       6  RES66       0.0626
    344 C39A        3.8767    3.3658   12.8752 C.ar    6  RES66      -0.0472
    345 H15A        4.0796    3.9922   12.2202 H       6  RES66       0.0626
    346 C40A        6.5365    5.4606   14.0560 C.ar    6  RES66      -0.0472
    347 H16A        5.7149    5.6005   13.6432 H       6  RES66       0.0626
    348 C41A        4.3123    8.4129   13.8083 C.ar    6  RES66      -0.0472
    349 H17A        4.4263    8.1982   12.9111 H       6  RES66       0.0626
    350 C42A        2.4292   10.4309   11.4755 C.ar    6  RES66      -0.0472
    351 H18A        3.2573   10.0151   11.4073 H       6  RES66       0.0626
    352 C43A        7.0139    2.3875    9.5232 C.3     6  RES66      -0.0419
    353 H19A        7.9193    2.7251    9.6129 H       6  RES66       0.0274
    354 H20A        6.4831    3.0775    9.0961 H       6  RES66       0.0274
    355 C44A        6.4444    2.1244   10.9228 C.3     6  RES66      -0.0514
    356 H21A        6.8372    1.3159   11.2853 H       6  RES66       0.0266
    357 H22A        5.4851    1.9941   10.8636 H       6  RES66       0.0266
    358 C45A        6.7430    3.2923   11.8452 C.3     6  RES66      -0.0419
    359 H23A        7.6852    3.5076   11.7806 H       6  RES66       0.0274
    360 H24A        6.2417    4.0650   11.5419 H       6  RES66       0.0274
    361 C46A        1.6061    5.1245   11.8847 C.3     6  RES66      -0.0419
    362 H25A        2.4062    5.1277   11.3356 H       6  RES66       0.0274
    363 H26A        0.8621    5.3733   11.3158 H       6  RES66       0.0274
    364 C47A        1.7624    6.1945   12.9757 C.3     6  RES66      -0.0514
    365 H27A        2.5829    6.0382   13.4692 H       6  RES66       0.0266
    366 H28A        1.0197    6.1372   13.5966 H       6  RES66       0.0266
    367 C48A        1.7997    7.5721   12.3584 C.3     6  RES66      -0.0419
    368 H29A        2.5925    7.6327   11.8021 H       6  RES66       0.0274
    369 H30A        1.0303    7.6623   11.7752 H       6  RES66       0.0274
    370 C49A        7.0805    8.1574   12.6796 C.3     6  RES66      -0.0419
    371 H31A        6.3857    7.6863   12.1933 H       6  RES66       0.0274
    372 H32A        7.9263    7.7378   12.4589 H       6  RES66       0.0274
    373 C50A        7.1173    9.6048   12.1951 C.3     6  RES66      -0.0514
    374 H33A        6.2185    9.9744   12.1933 H       6  RES66       0.0266
    375 H34A        7.6630   10.1399   12.7927 H       6  RES66       0.0266
    376 C51A        2.3094    3.1920    7.1670 C.3     6  RES66      -0.0419
    377 H35A        1.4819    3.6995    7.1778 H       6  RES66       0.0274
    378 H36A        2.9290    3.6314    7.7700 H       6  RES66       0.0274
    379 C52A        7.0370   -2.3538    7.2227 C.2     6  RES66       0.5161
    380 C53A        8.7683   -4.0255    6.7938 C.3     6  RES66       0.1086
    381 C54A        7.9813   -5.2148    6.5480 C.3     6  RES66      -0.0253
    382 H37A        7.7036   -5.5930    7.3860 H       6  RES66       0.0268
    383 H38A        7.2073   -4.9867    6.0294 H       6  RES66       0.0268
    384 H39A        8.5101   -5.8565    6.0688 H       6  RES66       0.0268
    385 C55A        9.9332   -4.4846    7.6444 C.3     6  RES66      -0.0253
    386 H40A       10.5089   -3.7385    7.8274 H       6  RES66       0.0268
    387 H41A        9.6021   -4.8451    8.4716 H       6  RES66       0.0268
    388 H42A       10.4253   -5.1628    7.1742 H       6  RES66       0.0268
    389 C56A        9.3405   -3.2587    5.6041 C.3     6  RES66      -0.0253
    390 H43A        9.8726   -2.5264    5.9235 H       6  RES66       0.0268
    391 H44A        9.8855   -3.8453    5.0765 H       6  RES66       0.0268
    392 H45A        8.6202   -2.9198    5.0657 H       6  RES66       0.0268
    393 C57A        1.7743   -1.1187    5.7189 C.2     6  RES66       0.5161
    394 C58A        2.8949   -0.8532    3.5781 C.3     6  RES66       0.1086
    395 C59A        2.8794   -2.3171    3.2731 C.3     6  RES66      -0.0253
    396 H46A        2.0085   -2.6736    3.4597 H       6  RES66       0.0268
    397 H47A        3.0882   -2.4522    2.3454 H       6  RES66       0.0268
    398 H48A        3.5318   -2.7635    3.8168 H       6  RES66       0.0268
    399 C60A        1.7494   -0.0425    2.9160 C.3     6  RES66      -0.0253
    400 H49A        1.8261    0.8825    3.1636 H       6  RES66       0.0268
    401 H50A        1.8100   -0.1227    1.9613 H       6  RES66       0.0268
    402 H51A        0.9011   -0.3831    3.2121 H       6  RES66       0.0268
    403 C61A        4.2622   -0.2024    3.3036 C.3     6  RES66      -0.0253
    404 H52A        4.2167    0.7341    3.5100 H       6  RES66       0.0268
    405 H53A        4.9295   -0.6195    3.8527 H       6  RES66       0.0268
    406 H54A        4.4896   -0.3166    2.3777 H       6  RES66       0.0268
    407 C62A       -1.4399   -0.1700    7.9961 C.2     6  RES66       0.5161
    408 C63A       -3.0196   -1.4607    6.7113 C.3     6  RES66       0.1086
    409 C64A       -2.2425   -2.7487    6.8620 C.3     6  RES66      -0.0253
    410 H55A       -1.9436   -2.8367    7.7700 H       6  RES66       0.0268
    411 H56A       -2.8074   -3.4911    6.6377 H       6  RES66       0.0268
    412 H57A       -1.4823   -2.7334    6.2752 H       6  RES66       0.0268
    413 C65A       -4.1513   -1.3341    7.7144 C.3     6  RES66      -0.0253
    414 H58A       -3.8170   -1.4974    8.5990 H       6  RES66       0.0268
    415 H59A       -4.5205   -0.4493    7.6713 H       6  RES66       0.0268
    416 H60A       -4.8354   -1.9758    7.5080 H       6  RES66       0.0268
    417 C66A       -3.5647   -1.1915    5.2954 C.3     6  RES66      -0.0253
    418 H61A       -2.8521   -1.2838    4.6566 H       6  RES66       0.0268
    419 H62A       -4.2585   -1.8235    5.0945 H       6  RES66       0.0268
    420 H63A       -3.9188   -0.3009    5.2524 H       6  RES66       0.0268
    421 C67A       -2.0986    3.5193   12.3369 C.2     6  RES66       0.5161
    422 C68A       -4.0517    4.2098   13.6450 C.3     6  RES66       0.1086
    423 C69A       -3.3811    5.3742   14.3144 C.3     6  RES66      -0.0253
    424 H64A       -2.8629    5.0600   15.0591 H       6  RES66       0.0268
    425 H65A       -2.8051    5.8168   13.6863 H       6  RES66       0.0268
    426 H66A       -4.0473    5.9901   14.6266 H       6  RES66       0.0268
    427 C70A       -4.8812    4.6324   12.4409 C.3     6  RES66      -0.0253
    428 H67A       -4.3324    5.1302   11.8326 H       6  RES66       0.0268
    429 H68A       -5.2227    3.8524   11.9977 H       6  RES66       0.0268
    430 H69A       -5.6131    5.1796   12.7334 H       6  RES66       0.0268
    431 C71A       -4.8632    3.4244   14.6589 C.3     6  RES66      -0.0253
    432 H70A       -4.3064    3.1968   15.4072 H       6  RES66       0.0268
    433 H71A       -5.6024    3.9585   14.9604 H       6  RES66       0.0268
    434 H72A       -5.1946    2.6213   14.2515 H       6  RES66       0.0268
    435 C72A        0.5296    0.5130   14.0883 C.2     6  RES66       0.5161
    436 C73A       -1.4995   -0.7871   14.2085 C.3     6  RES66       0.1086
    437 C74A       -1.5412   -0.9884   12.7245 C.3     6  RES66      -0.0253
    438 H73A       -0.6675   -1.2321   12.4086 H       6  RES66       0.0268
    439 H74A       -2.1634   -1.6893   12.5145 H       6  RES66       0.0268
    440 H75A       -1.8193   -0.1735   12.2974 H       6  RES66       0.0268
    441 C75A       -2.8591   -0.4012   14.7666 C.3     6  RES66      -0.0253
    442 H76A       -2.7928   -0.2807   15.7176 H       6  RES66       0.0268
    443 H77A       -3.1522    0.4194   14.3610 H       6  RES66       0.0268
    444 H78A       -3.4922   -1.0957   14.5763 H       6  RES66       0.0268
    445 C76A       -0.8793   -1.9299   15.0393 C.3     6  RES66      -0.0253
    446 H79A       -0.8983   -1.6959   15.9688 H       6  RES66       0.0268
    447 H80A       -1.3817   -2.7368   14.8993 H       6  RES66       0.0268
    448 H81A        0.0294   -2.0691   14.7630 H       6  RES66       0.0268
    449 C77A        5.8396    1.8076   16.5538 C.2     6  RES66       0.5161
    450 C78A        5.1136    3.5277   18.1222 C.3     6  RES66       0.1086
    451 C79A        4.7233    2.5544   19.1953 C.3     6  RES66      -0.0253
    452 H82A        3.8493    2.2035   19.0051 H       6  RES66       0.0268
    453 H83A        5.3580    1.8357   19.2222 H       6  RES66       0.0268
    454 H84A        4.7100    3.0019   20.0440 H       6  RES66       0.0268
    455 C80A        6.4805    4.1995   18.2424 C.3     6  RES66      -0.0253
    456 H85A        7.1558    3.5293   18.3698 H       6  RES66       0.0268
    457 H86A        6.6670    4.6919   17.4385 H       6  RES66       0.0268
    458 H87A        6.4775    4.7989   18.9925 H       6  RES66       0.0268
    459 C81A        4.0130    4.5571   17.9320 C.3     6  RES66      -0.0253
    460 H88A        3.1677    4.1089   17.8458 H       6  RES66       0.0268
    461 H89A        3.9887    5.1434   18.6910 H       6  RES66       0.0268
    462 H90A        4.1854    5.0690   17.1388 H       6  RES66       0.0268
    463 C82A        9.2922    2.1944   16.0388 C.2     6  RES66       0.5161
    464 C83A       10.1510    0.0684   16.8571 C.3     6  RES66       0.1086
    465 C84A        9.7981   -1.3448   16.3421 C.3     6  RES66      -0.0253
    466 H91A       10.1722   -1.4699   15.4664 H       6  RES66       0.0268
    467 H92A       10.1574   -2.0032   16.9414 H       6  RES66       0.0268
    468 H93A        8.8431   -1.4413   16.2972 H       6  RES66       0.0268
    469 C85A        9.5718    0.2487   18.2352 C.3     6  RES66      -0.0253
    470 H94A        8.6354    0.0360   18.2191 H       6  RES66       0.0268
    471 H95A       10.0226   -0.3350   18.8489 H       6  RES66       0.0268
    472 H96A        9.6904    1.1597   18.5152 H       6  RES66       0.0268
    473 C86A       11.6216    0.3759   16.8230 C.3     6  RES66      -0.0253
    474 H97A       11.9548    0.2470   15.9312 H       6  RES66       0.0268
    475 H98A       11.7644    1.2884   17.0886 H       6  RES66       0.0268
    476 H99A       12.0851   -0.2096   17.4259 H       6  RES66       0.0268
    477 C87A       10.1099    7.8549   14.7360 C.2     6  RES66       0.5161
    478 C88A       11.6736    9.6796   14.4705 C.3     6  RES66       0.1086
    479 C89A       12.8724    8.8378   14.0936 C.3     6  RES66      -0.0253
    480 H100A      12.6035    8.1577   13.4710 H       6  RES66       0.0268
    481 H101A      13.5414    9.3948   13.6881 H       6  RES66       0.0268
    482 H102A      13.2343    8.4243   14.8796 H       6  RES66       0.0268
    483 C90A       12.1019   10.7447   15.4538 C.3     6  RES66      -0.0253
    484 H103A      11.3449   11.2852   15.6907 H       6  RES66       0.0268
    485 H104A      12.4582   10.3286   16.2416 H       6  RES66       0.0268
    486 H105A      12.7745   11.2978   15.0537 H       6  RES66       0.0268
    487 C91A       10.9496   10.2699   13.2197 C.3     6  RES66      -0.0253
    488 H106A      10.2044   10.8048   13.5033 H       6  RES66       0.0268
    489 H107A      11.5638   10.8148   12.7209 H       6  RES66       0.0268
    490 H108A      10.6341    9.5535   12.6635 H       6  RES66       0.0268
    491 C92A        6.8767    9.5833   17.2896 C.2     6  RES66       0.5161
    492 C93A        8.3864   10.3989   18.9907 C.3     6  RES66       0.1086
    493 C94A        8.8288    9.7547   20.2917 C.3     6  RES66      -0.0253
    494 H109A       8.0614    9.5985   20.8480 H       6  RES66       0.0268
    495 H110A       9.2630    8.9202   20.1051 H       6  RES66       0.0268
    496 H111A       9.4381   10.3387   20.7475 H       6  RES66       0.0268
    497 C95A        9.5144   10.6934   18.0576 C.3     6  RES66      -0.0253
    498 H112A      10.0330    9.8956   17.9194 H       6  RES66       0.0268
    499 H113A       9.1656   10.9968   17.2160 H       6  RES66       0.0268
    500 H114A      10.0732   11.3764   18.4362 H       6  RES66       0.0268
    501 C96A        7.4869   11.5950   19.2760 C.3     6  RES66      -0.0253
    502 H115A       6.7835   11.3296   19.8736 H       6  RES66       0.0268
    503 H116A       8.0034   12.2953   19.6816 H       6  RES66       0.0268
    504 H117A       7.1054   11.9144   18.4542 H       6  RES66       0.0268
    505 C97A        0.9277    8.7042   16.7297 C.2     6  RES66       0.5161
    506 C98A       -1.1636    8.6222   17.8943 C.3     6  RES66       0.1086
    507 C99A       -0.6328    7.9060   19.1002 C.3     6  RES66      -0.0253
    508 H118A      -0.2484    8.5433   19.7067 H       6  RES66       0.0268
    509 H119A      -1.3480    7.4412   19.5362 H       6  RES66       0.0268
    510 H120A       0.0397    7.2774   18.8274 H       6  RES66       0.0268
    511 C100A      -1.8181    7.7486   16.8266 C.3     6  RES66      -0.0253
    512 H121A      -2.1215    8.3027   16.1034 H       6  RES66       0.0268
    513 H122A      -1.1794    7.1133   16.4982 H       6  RES66       0.0268
    514 H123A      -2.5648    7.2842   17.2088 H       6  RES66       0.0268
    515 C101A      -2.1311    9.7072   18.2944 C.3     6  RES66      -0.0253
    516 H124A      -2.4632   10.1468   17.5067 H       6  RES66       0.0268
    517 H125A      -2.8656    9.3187   18.7772 H       6  RES66       0.0268
    518 H126A      -1.6826   10.3449   18.8525 H       6  RES66       0.0268
    519 C102A      -0.8552   11.3303   14.5728 C.2     6  RES66       0.5161
    520 C103A      -0.0116   13.3223   15.6781 C.3     6  RES66       0.1086
    521 C104A      -1.0905   14.2403   15.1524 C.3     6  RES66      -0.0253
    522 H127A      -1.9448   13.8113   15.2349 H       6  RES66       0.0268
    523 H128A      -1.0911   15.0555   15.6584 H       6  RES66       0.0268
    524 H129A      -0.9190   14.4378   14.2282 H       6  RES66       0.0268
    525 C105A      -0.3198   12.8314   17.0814 C.3     6  RES66      -0.0253
    526 H130A       0.3837   12.2500   17.3793 H       6  RES66       0.0268
    527 H131A      -0.3896   13.5807   17.6754 H       6  RES66       0.0268
    528 H132A      -1.1508   12.3492   17.0760 H       6  RES66       0.0268
    529 C106A       1.3704   13.9422   15.5759 C.3     6  RES66      -0.0253
    530 H133A       2.0237   13.3259   15.9204 H       6  RES66       0.0268
    531 H134A       1.5682   14.1357   14.6571 H       6  RES66       0.0268
    532 H135A       1.3962   14.7534   16.0873 H       6  RES66       0.0268
    533 C107A      -0.1837   12.3929    8.6636 C.2     6  RES66       0.5161
    534 C108A      -0.9761   13.1039    6.4905 C.3     6  RES66       0.1086
    535 C109A      -0.9322   14.5250    5.8248 C.3     6  RES66      -0.0253
    536 H136A      -0.0198   14.8038    5.7261 H       6  RES66       0.0268
    537 H137A      -1.3497   14.4850    4.9617 H       6  RES66       0.0268
    538 H138A      -1.4012   15.1523    6.3793 H       6  RES66       0.0268
    539 C110A      -2.3697   12.5971    6.6879 C.3     6  RES66      -0.0253
    540 H139A      -2.3390   11.7277    7.0935 H       6  RES66       0.0268
    541 H140A      -2.8512   13.2008    7.2586 H       6  RES66       0.0268
    542 H141A      -2.8111   12.5387    5.8374 H       6  RES66       0.0268
    543 C111A      -0.0249   12.1575    5.7548 C.3     6  RES66      -0.0253
    544 H142A      -0.0687   11.2862    6.1550 H       6  RES66       0.0268
    545 H143A      -0.2834   12.0992    4.8307 H       6  RES66       0.0268
    546 H144A       0.8718   12.4921    5.8158 H       6  RES66       0.0268
    547 O1A         6.5925   -1.5920    8.2132 O.3     6  RES66      -0.3944
    548 O2A         6.5940   -2.3480    6.1209 O.2     6  RES66      -0.2024
    549 O3A         8.0228   -3.0946    7.6605 O.3     6  RES66      -0.4278
    550 O4A         1.9774   -0.9498    7.0594 O.3     6  RES66      -0.3944
    551 O5A         2.8034   -0.6469    5.0438 O.3     6  RES66      -0.4278
    552 O6A         0.7726   -1.6115    5.3223 O.2     6  RES66      -0.2024
    553 O7A        -0.6705    0.9305    7.8351 O.3     6  RES66      -0.3944
    554 O8A        -2.0857   -0.3246    6.8586 O.3     6  RES66      -0.4278
    555 O9A        -1.4850   -0.8553    8.9669 O.2     6  RES66      -0.2024
    556 O10A       -1.2860    2.4772   12.2936 O.3     6  RES66      -0.3944
    557 O11A       -3.0094    3.2436   13.2718 O.3     6  RES66      -0.4278
    558 O12A       -1.9891    4.5010   11.6765 O.2     6  RES66      -0.2024
    559 O13A        0.9423    1.8000   14.3705 O.3     6  RES66      -0.3944
    560 O14A       -0.7121    0.4472   14.5171 O.3     6  RES66      -0.4278
    561 O15A        1.1888   -0.2730   13.5302 O.2     6  RES66      -0.2024
    562 O16A        5.5905    1.2706   15.3368 O.3     6  RES66      -0.3944
    563 O17A        5.0565    2.8198   16.8191 O.3     6  RES66      -0.4278
    564 O18A        6.6873    1.3092   17.2321 O.2     6  RES66      -0.2024
    565 O19A        8.6760    2.6475   14.9159 O.3     6  RES66      -0.3944
    566 O20A        9.4839    0.8913   15.8210 O.3     6  RES66      -0.4278
    567 O21A        9.5876    2.8387   16.9884 O.2     6  RES66      -0.2024
    568 O22A        9.2228    7.3703   15.6532 O.3     6  RES66      -0.3944
    569 O23A       10.6928    8.8949   15.2834 O.3     6  RES66      -0.4278
    570 O24A       10.2975    7.3692   13.6594 O.2     6  RES66      -0.2024
    571 O25A        6.2220    8.4455   16.9317 O.3     6  RES66      -0.3944
    572 O26A        7.5341    9.3138   18.3863 O.3     6  RES66      -0.4278
    573 O27A        6.8404   10.5807   16.6238 O.2     6  RES66      -0.2024
    574 O28A        1.6934    9.6104   16.0593 O.3     6  RES66      -0.3944
    575 O29A       -0.0686    9.3675   17.2452 O.3     6  RES66      -0.4278
    576 O30A        1.1890    7.5416   16.7584 O.2     6  RES66      -0.2024
    577 O31A       -0.5409   10.4039   13.6362 O.3     6  RES66      -0.3944
    578 O32A        0.1180   12.1731   14.7423 O.3     6  RES66      -0.4278
    579 O33A       -1.9139   11.2731   15.1515 O.2     6  RES66      -0.2024
    580 O34A        0.4540   12.9865    9.7652 O.3     6  RES66      -0.3944
    581 O35A       -0.3883   13.4097    7.8148 O.3     6  RES66      -0.4278
    582 O36A       -0.4670   11.2726    8.5631 O.2     6  RES66      -0.2024
@<TRIPOS>BOND
     1     1     2    1
     2     3     1    1
     3     4     3   ar
     4     5     4   ar
     5     6     5    1
     6     7     5   ar
     7     8     7   ar
     8     9     8    1
     9    10     9    1
    10    11     9    1
    11    12    11   ar
    12    13    12   ar
    13    14    13    1
    14    15    13   ar
    15    16    15   ar
    16    17    16    1
    17    18    17    1
    18    19    17    1
    19    20    19   ar
    20    21    20   ar
    21    22    21    1
    22    23    21   ar
    23    24    23   ar
    24    25    24    1
    25    26    25    1
    26    27    25    1
    27    28    27   ar
    28    29    28   ar
    29    30    29    1
    30    31    29   ar
    31    32    31   ar
    32    33    32    1
    33    34    33    1
    34    35    33    1
    35    36    35   ar
    36    37    36   ar
    37    38    37    1
    38    39    37   ar
    39    40    39   ar
    40    41    40    1
    41    42    41    1
    42    43    41    1
    43    44    43   ar
    44    45    44   ar
    45    46    45    1
    46    47    45   ar
    47    48     1    1
    48    49     3   ar
    49    50    49    1
    50    51    11   ar
    51    52    51    1
    52    53    19   ar
    53    54    53    1
    54    55    27   ar
    55    56    55    1
    56    57    35   ar
    57    58    57    1
    58    59    43   ar
    59    60    59    1
    60    61     1    1
    61    62    61    1
    62    63    61    1
    63    64    61    1
    64    65    64    1
    65    66    64    1
    66    67    25    1
    67    68    67    1
    68    69    67    1
    69    70    17    1
    70    71    70    1
    71    72    70    1
    72    73    70    1
    73    74    73    1
    74    75    73    1
    75    76    41    1
    76    77    76    1
    77    78    76    1
    78    79    33    1
    79    80    79    1
    80    81    79    1
    81    82    79    1
    82    83    82    1
    83    84    82    1
    84    85     9    1
    85    86    85    1
    86    87    85    1
    87    88   256    1
    88    89    90    1
    89    90    91    1
    90    92    90    1
    91    93    90    1
    92    94    89    1
    93    95    94    1
    94    96    94    1
    95    97    94    1
    96    98    89    1
    97    99    98    1
    98   100    98    1
    99   101    98    1
   100   102   259    1
   101   103   104    1
   102   104   105    1
   103   106   104    1
   104   107   104    1
   105   108   103    1
   106   109   108    1
   107   110   108    1
   108   111   108    1
   109   112   103    1
   110   113   112    1
   111   114   112    1
   112   115   112    1
   113   116   262    1
   114   117   118    1
   115   118   119    1
   116   120   118    1
   117   121   118    1
   118   122   117    1
   119   123   122    1
   120   124   122    1
   121   125   122    1
   122   126   117    1
   123   127   126    1
   124   128   126    1
   125   129   126    1
   126   130   265    1
   127   131   132    1
   128   132   133    1
   129   134   132    1
   130   135   132    1
   131   136   131    1
   132   137   136    1
   133   138   136    1
   134   139   136    1
   135   140   131    1
   136   141   140    1
   137   142   140    1
   138   143   140    1
   139   144   268    1
   140   145   146    1
   141   146   147    1
   142   148   146    1
   143   149   146    1
   144   150   145    1
   145   151   150    1
   146   152   150    1
   147   153   150    1
   148   154   145    1
   149   155   154    1
   150   156   154    1
   151   157   154    1
   152   158   271    1
   153   159   160    1
   154   160   161    1
   155   162   160    1
   156   163   160    1
   157   164   159    1
   158   165   164    1
   159   166   164    1
   160   167   164    1
   161   168   159    1
   162   169   168    1
   163   170   168    1
   164   171   168    1
   165   172   274    1
   166   173   174    1
   167   174   175    1
   168   176   174    1
   169   177   174    1
   170   178   173    1
   171   179   178    1
   172   180   178    1
   173   181   178    1
   174   182   173    1
   175   183   182    1
   176   184   182    1
   177   185   182    1
   178   186   277    1
   179   187   188    1
   180   188   189    1
   181   190   188    1
   182   191   188    1
   183   192   187    1
   184   193   192    1
   185   194   192    1
   186   195   192    1
   187   196   187    1
   188   197   196    1
   189   198   196    1
   190   199   196    1
   191   200   280    1
   192   201   202    1
   193   202   203    1
   194   204   202    1
   195   205   202    1
   196   206   201    1
   197   207   206    1
   198   208   206    1
   199   209   206    1
   200   210   201    1
   201   211   210    1
   202   212   210    1
   203   213   210    1
   204   214   283    1
   205   215   216    1
   206   216   217    1
   207   218   216    1
   208   219   216    1
   209   220   215    1
   210   221   220    1
   211   222   220    1
   212   223   220    1
   213   224   215    1
   214   225   224    1
   215   226   224    1
   216   227   224    1
   217   228   286    1
   218   229   230    1
   219   230   231    1
   220   232   230    1
   221   233   230    1
   222   234   229    1
   223   235   234    1
   224   236   234    1
   225   237   234    1
   226   238   229    1
   227   239   238    1
   228   240   238    1
   229   241   238    1
   230   242   289    1
   231   243   244    1
   232   244   245    1
   233   246   244    1
   234   247   244    1
   235   248   243    1
   236   249   248    1
   237   250   248    1
   238   251   248    1
   239   252   243    1
   240   253   252    1
   241   254   252    1
   242   255   252    1
   243   256     4    1
   244   257    88    2
   245   258    88    1
   246   259     7    1
   247   260   102    1
   248   261   102    2
   249   262    12    1
   250   263   116    1
   251   264   116    2
   252   265    15    1
   253   266   130    1
   254   267   130    2
   255   268    20    1
   256   269   144    1
   257   270   144    2
   258   271    23    1
   259   272   158    1
   260   273   158    2
   261   274    28    1
   262   275   172    1
   263   276   172    2
   264   277    31    1
   265   278   186    1
   266   279   186    2
   267   280    36    1
   268   281   200    1
   269   282   200    2
   270   283    39    1
   271   284   214    1
   272   285   214    2
   273   286    44    1
   274   287   228    1
   275   288   228    2
   276   289    47    1
   277   290   242    1
   278   291   242    2
   279   292   293    1
   280   294   292    1
   281   295   294   ar
   282   296   295   ar
   283   297   296    1
   284   298   296   ar
   285   299   298   ar
   286   300   299    1
   287   301   300    1
   288   302   300    1
   289   303   302   ar
   290   304   303   ar
   291   305   304    1
   292   306   304   ar
   293   307   306   ar
   294   308   307    1
   295   309   308    1
   296   310   308    1
   297   311   310   ar
   298   312   311   ar
   299   313   312    1
   300   314   312   ar
   301   315   314   ar
   302   316   315    1
   303   317   316    1
   304   318   316    1
   305   319   318   ar
   306   320   319   ar
   307   321   320    1
   308   322   320   ar
   309   323   322   ar
   310   324   323    1
   311   325   324    1
   312   326   324    1
   313   327   326   ar
   314   328   327   ar
   315   329   328    1
   316   330   328   ar
   317   331   330   ar
   318   332   331    1
   319   333   332    1
   320   334   332    1
   321   335   334   ar
   322   336   335   ar
   323   337   336    1
   324   338    48   ar
   325   339    47   ar
   326   340   294   ar
   327   341   340    1
   328   342   302   ar
   329   343   342    1
   330   344   310   ar
   331   345   344    1
   332   346   318   ar
   333   347   346    1
   334   348   326   ar
   335   349   348    1
   336   350    48   ar
   337   351   350    1
   338   352   292    1
   339   353   352    1
   340   354   352    1
   341   355   352    1
   342   356   355    1
   343   357   355    1
   344   358   316    1
   345   359   358    1
   346   360   358    1
   347   361   308    1
   348   362   361    1
   349   363   361    1
   350   364   361    1
   351   365   364    1
   352   366   364    1
   353   367   332    1
   354   368   367    1
   355   369   367    1
   356   370   324    1
   357   371   370    1
   358   372   370    1
   359   373    85    1
   360   374   373    1
   361   375   373    1
   362   376    82    1
   363   377   376    1
   364   378   376    1
   365   379   547    1
   366   380   381    1
   367   381   382    1
   368   383   381    1
   369   384   381    1
   370   385   380    1
   371   386   385    1
   372   387   385    1
   373   388   385    1
   374   389   380    1
   375   390   389    1
   376   391   389    1
   377   392   389    1
   378   393   550    1
   379   394   395    1
   380   395   396    1
   381   397   395    1
   382   398   395    1
   383   399   394    1
   384   400   399    1
   385   401   399    1
   386   402   399    1
   387   403   394    1
   388   404   403    1
   389   405   403    1
   390   406   403    1
   391   407   553    1
   392   408   409    1
   393   409   410    1
   394   411   409    1
   395   412   409    1
   396   413   408    1
   397   414   413    1
   398   415   413    1
   399   416   413    1
   400   417   408    1
   401   418   417    1
   402   419   417    1
   403   420   417    1
   404   421   556    1
   405   422   423    1
   406   423   424    1
   407   425   423    1
   408   426   423    1
   409   427   422    1
   410   428   427    1
   411   429   427    1
   412   430   427    1
   413   431   422    1
   414   432   431    1
   415   433   431    1
   416   434   431    1
   417   435   559    1
   418   436   437    1
   419   437   438    1
   420   439   437    1
   421   440   437    1
   422   441   436    1
   423   442   441    1
   424   443   441    1
   425   444   441    1
   426   445   436    1
   427   446   445    1
   428   447   445    1
   429   448   445    1
   430   449   562    1
   431   450   451    1
   432   451   452    1
   433   453   451    1
   434   454   451    1
   435   455   450    1
   436   456   455    1
   437   457   455    1
   438   458   455    1
   439   459   450    1
   440   460   459    1
   441   461   459    1
   442   462   459    1
   443   463   565    1
   444   464   465    1
   445   465   466    1
   446   467   465    1
   447   468   465    1
   448   469   464    1
   449   470   469    1
   450   471   469    1
   451   472   469    1
   452   473   464    1
   453   474   473    1
   454   475   473    1
   455   476   473    1
   456   477   568    1
   457   478   479    1
   458   479   480    1
   459   481   479    1
   460   482   479    1
   461   483   478    1
   462   484   483    1
   463   485   483    1
   464   486   483    1
   465   487   478    1
   466   488   487    1
   467   489   487    1
   468   490   487    1
   469   491   571    1
   470   492   493    1
   471   493   494    1
   472   495   493    1
   473   496   493    1
   474   497   492    1
   475   498   497    1
   476   499   497    1
   477   500   497    1
   478   501   492    1
   479   502   501    1
   480   503   501    1
   481   504   501    1
   482   505   574    1
   483   506   507    1
   484   507   508    1
   485   509   507    1
   486   510   507    1
   487   511   506    1
   488   512   511    1
   489   513   511    1
   490   514   511    1
   491   515   506    1
   492   516   515    1
   493   517   515    1
   494   518   515    1
   495   519   577    1
   496   520   521    1
   497   521   522    1
   498   523   521    1
   499   524   521    1
   500   525   520    1
   501   526   525    1
   502   527   525    1
   503   528   525    1
   504   529   520    1
   505   530   529    1
   506   531   529    1
   507   532   529    1
   508   533   580    1
   509   534   535    1
   510   535   536    1
   511   537   535    1
   512   538   535    1
   513   539   534    1
   514   540   539    1
   515   541   539    1
   516   542   539    1
   517   543   534    1
   518   544   543    1
   519   545   543    1
   520   546   543    1
   521   547   295    1
   522   548   379    2
   523   549   379    1
   524   550   298    1
   525   551   393    1
   526   552   393    2
   527   553   303    1
   528   554   407    1
   529   555   407    2
   530   556   306    1
   531   557   421    1
   532   558   421    2
   533   559   311    1
   534   560   435    1
   535   561   435    2
   536   562   314    1
   537   563   449    1
   538   564   449    2
   539   565   319    1
   540   566   463    1
   541   567   463    2
   542   568   322    1
   543   569   477    1
   544   570   477    2
   545   571   327    1
   546   572   491    1
   547   573   491    2
   548   574   330    1
   549   575   505    1
   550   576   505    2
   551   577   335    1
   552   578   519    1
   553   579   519    2
   554   580   338    1
   555   581   533    1
   556   582   533    2
   557     8    49   ar
   558    16    51   ar
   559    24    53   ar
   560    32    55   ar
   561    40    57   ar
   562    59   339   ar
   563    64    67    1
   564    73    76    1
   565    89   258    1
   566   103   260    1
   567   117   263    1
   568   131   266    1
   569   145   269    1
   570   159   272    1
   571   173   275    1
   572   187   278    1
   573   201   281    1
   574   215   284    1
   575   229   287    1
   576   243   290    1
   577   292   339    1
   578   299   340   ar
   579   300   376    1
   580   307   342   ar
   581   315   344   ar
   582   323   346   ar
   583   331   348   ar
   584   334   350   ar
   585   336   338   ar
   586   355   358    1
   587   364   367    1
   588   370   373    1
   589   380   549    1
   590   394   551    1
   591   408   554    1
   592   422   557    1
   593   436   560    1
   594   450   563    1
   595   464   566    1
   596   478   569    1
   597   492   572    1
   598   506   575    1
   599   520   578    1
   600   534   581    1
