@<TRIPOS>MOLECULE
*****
 108 114 0 0 0
SMALL
GASTEIGER

@<TRIPOS>ATOM
      1 N1         26.0301   -0.1416    0.2766 N.2     3  RES33      -0.2892
      2 N2         28.0331    4.8305    3.9859 N.2     3  RES33      -0.2892
      3 N3         22.6036    5.2860    0.4222 N.2     3  RES33      -0.2892
      4 N4         25.3010   -2.6727    1.6890 N.2     3  RES33      -0.2892
      5 N5         19.4879   -2.9778    4.3535 N.2     3  RES33      -0.2892
      6 N6         24.7778   -3.0349    8.0810 N.2     3  RES33      -0.2892
      7 N7         21.9491    4.4332    9.8100 N.2     3  RES33      -0.2892
      8 N8         27.6794    5.0994    6.9598 N.2     3  RES33      -0.2892
      9 N9         25.9859   -0.6092    9.4424 N.2     3  RES33      -0.2892
     10 N10        19.6239    4.8042    7.8771 N.2     3  RES33      -0.2892
     11 N11        17.7885   -0.5104    4.6047 N.2     3  RES33      -0.2892
     12 N12        19.8939    4.7230    1.4560 N.2     3  RES33      -0.2892
     13 C1         26.0049    1.9658    1.4633 C.ar    3  RES33      -0.0062
     14 C2         26.6742    2.8614    2.3406 C.ar    3  RES33      -0.0445
     15 H1         27.4738    2.5838    2.7701 H       3  RES33       0.0630
     16 C3         26.1734    4.1467    2.5808 C.ar    3  RES33      -0.0062
     17 C4         24.9630    4.5155    1.9547 C.ar    3  RES33      -0.0445
     18 H2         24.6058    5.3826    2.1112 H       3  RES33       0.0630
     19 C5         24.2696    3.6407    1.1029 C.ar    3  RES33      -0.0062
     20 C6         24.8068    2.4180    0.8700 C.ar    3  RES33      -0.0445
     21 H3         24.3538    1.8341    0.2730 H       3  RES33       0.0630
     22 C7         26.5153    0.6509    1.1539 C.2     3  RES33       0.0294
     23 H4         27.2748    0.3501    1.6417 H       3  RES33       0.0831
     24 C8         26.9159    5.0698    3.4654 C.2     3  RES33       0.0294
     25 H5         26.5143    5.9117    3.6546 H       3  RES33       0.0831
     26 C9         23.0229    4.0875    0.4186 C.2     3  RES33       0.0294
     27 H6         22.5116    3.4377   -0.0510 H       3  RES33       0.0831
     28 C10        23.5926   -2.8450    3.3889 C.ar    3  RES33      -0.0062
     29 C11        22.2507   -2.8834    3.6801 C.ar    3  RES33      -0.0445
     30 H7         21.6289   -2.8790    2.9630 H       3  RES33       0.0630
     31 C12        21.7630   -2.9295    4.9796 C.ar    3  RES33      -0.0062
     32 C13        22.6790   -2.9877    6.0498 C.ar    3  RES33      -0.0445
     33 H8         22.3731   -3.0766    6.9453 H       3  RES33       0.0630
     34 C14        24.0718   -2.9108    5.7622 C.ar    3  RES33      -0.0062
     35 C15        24.5149   -2.8472    4.4482 C.ar    3  RES33      -0.0445
     36 H9         25.4459   -2.8044    4.2625 H       3  RES33       0.0630
     37 C16        24.0932   -2.7846    1.9620 C.2     3  RES33       0.0294
     38 H10        23.4653   -2.8329    1.2522 H       3  RES33       0.0831
     39 C17        20.3227   -2.9547    5.3072 C.2     3  RES33       0.0294
     40 H11        20.0274   -2.9536    6.2136 H       3  RES33       0.0831
     41 C18        25.1055   -2.9108    6.8543 C.2     3  RES33       0.0294
     42 H12        26.0248   -2.8175    6.6249 H       3  RES33       0.0831
     43 C19        24.1614    3.8449    9.0565 C.ar    3  RES33      -0.0062
     44 C20        25.3122    4.3344    8.3431 C.ar    3  RES33      -0.0445
     45 H13        25.3784    5.2443    8.0773 H       3  RES33       0.0630
     46 C21        26.3225    3.4256    8.0591 C.ar    3  RES33      -0.0062
     47 C22        26.2640    2.1228    8.4887 C.ar    3  RES33      -0.0445
     48 H14        26.9707    1.5312    8.2630 H       3  RES33       0.0630
     49 C23        25.1719    1.6321    9.2640 C.ar    3  RES33      -0.0062
     50 C24        24.1581    2.5640    9.5115 C.ar    3  RES33      -0.0445
     51 H15        23.4176    2.2808   10.0321 H       3  RES33       0.0630
     52 C25        23.0516    4.8207    9.2494 C.2     3  RES33       0.0294
     53 H16        23.1527    5.7218    8.9655 H       3  RES33       0.0831
     54 C26        27.5416    3.8668    7.2401 C.2     3  RES33       0.0294
     55 H17        28.1843    3.2302    6.9453 H       3  RES33       0.0831
     56 C27        25.1534    0.2810    9.7372 C.2     3  RES33       0.0294
     57 H18        24.4486    0.0373   10.3269 H       3  RES33       0.0831
     58 C28        19.2364    3.2357    6.0316 C.ar    3  RES33      -0.0062
     59 C29        18.7891    2.0207    5.6312 C.ar    3  RES33      -0.0445
     60 H19        18.4944    1.3918    6.2791 H       3  RES33       0.0630
     61 C30        18.7582    1.6716    4.2371 C.ar    3  RES33      -0.0062
     62 C31        19.1371    2.6277    3.3525 C.ar    3  RES33      -0.0445
     63 H20        19.0993    2.4136    2.4279 H       3  RES33       0.0630
     64 C32        19.5758    3.8932    3.7056 C.ar    3  RES33      -0.0062
     65 C33        19.5823    4.2302    5.0816 C.ar    3  RES33      -0.0445
     66 H21        19.8155    5.1071    5.3618 H       3  RES33       0.0630
     67 C34        19.2718    3.6407    7.4949 C.2     3  RES33       0.0294
     68 H22        19.0221    3.0008    8.1501 H       3  RES33       0.0831
     69 C35        18.3380    0.3392    3.8585 C.2     3  RES33       0.0294
     70 H23        18.4969    0.0801    2.9594 H       3  RES33       0.0831
     71 C36        19.9118    4.9458    2.7301 C.2     3  RES33       0.0294
     72 H24        20.1517    5.8096    3.0431 H       3  RES33       0.0831
     73 C37        26.6298   -1.4390    0.0400 C.3     3  RES33       0.0591
     74 H25        27.3990   -1.5586    0.6552 H       3  RES33       0.0526
     75 H26        26.9717   -1.4774   -0.8882 H       3  RES33       0.0526
     76 C38        25.6493   -2.5552    0.2512 C.3     3  RES33       0.0591
     77 H27        24.8296   -2.3807   -0.2730 H       3  RES33       0.0526
     78 H28        26.0411   -3.4070   -0.0655 H       3  RES33       0.0526
     79 C39        28.5907    5.9556    4.7867 C.3     3  RES33       0.0591
     80 H29        27.9327    6.6910    4.8522 H       3  RES33       0.0526
     81 H30        29.4136    6.3046    4.3608 H       3  RES33       0.0526
     82 C40        28.9127    5.4024    6.1918 C.3     3  RES33       0.0591
     83 H31        29.4529    4.5770    6.1044 H       3  RES33       0.0526
     84 H32        29.4535    6.0664    6.6905 H       3  RES33       0.0526
     85 C41        21.3659    5.4979   -0.3203 C.3     3  RES33       0.0591
     86 H33        21.1364    4.6725   -0.8154 H       3  RES33       0.0526
     87 H34        21.5028    6.2223   -0.9828 H       3  RES33       0.0526
     88 C42        20.2237    5.8656    0.5897 C.3     3  RES33       0.0591
     89 H35        20.4779    6.6438    1.1466 H       3  RES33       0.0526
     90 H36        19.4331    6.1169    0.0510 H       3  RES33       0.0526
     91 C43        18.0521   -2.9482    4.6993 C.3     3  RES33       0.0591
     92 H37        17.9425   -2.8560    5.6785 H       3  RES33       0.0526
     93 H38        17.6180   -3.7933    4.4154 H       3  RES33       0.0526
     94 C44        17.3986   -1.7737    3.9932 C.3     3  RES33       0.0591
     95 H39        17.6654   -1.7726    3.0395 H       3  RES33       0.0526
     96 H40        16.4134   -1.8703    4.0369 H       3  RES33       0.0526
     97 C45        25.9405   -3.0063    9.0456 C.3     3  RES33       0.0591
     98 H41        25.9867   -3.8701    9.5261 H       3  RES33       0.0526
     99 H42        26.7824   -2.8955    8.5360 H       3  RES33       0.0526
    100 C46        25.8171   -1.9175   10.0175 C.3     3  RES33       0.0591
    101 H43        24.9234   -1.9669   10.4434 H       3  RES33       0.0526
    102 H44        26.4959   -2.0448   10.7273 H       3  RES33       0.0526
    103 C47        20.9174    5.5176    9.8755 C.3     3  RES33       0.0591
    104 H45        21.2121    6.2871    9.3259 H       3  RES33       0.0526
    105 H46        20.8187    5.8272   10.8110 H       3  RES33       0.0526
    106 C48        19.5480    5.0029    9.3550 C.3     3  RES33       0.0591
    107 H47        19.3218    4.1478    9.7955 H       3  RES33       0.0526
    108 H48        18.8393    5.6603    9.5661 H       3  RES33       0.0526
@<TRIPOS>BOND
     1     1    22    2
     2     2    24    2
     3     3    26    2
     4     4    37    2
     5     5    39    2
     6     6    41    2
     7     7    52    2
     8     8    54    2
     9     9    56    2
    10    10    67    2
    11    11    69    2
    12    12    71    2
    13    13    14   ar
    14    14    15    1
    15    16    14   ar
    16    17    16   ar
    17    18    17    1
    18    19    17   ar
    19    20    13   ar
    20    21    20    1
    21    22    13    1
    22    23    22    1
    23    24    16    1
    24    25    24    1
    25    26    19    1
    26    27    26    1
    27    28    29   ar
    28    29    30    1
    29    31    29   ar
    30    32    31   ar
    31    33    32    1
    32    34    32   ar
    33    35    28   ar
    34    36    35    1
    35    37    28    1
    36    38    37    1
    37    39    31    1
    38    40    39    1
    39    41    34    1
    40    42    41    1
    41    43    44   ar
    42    44    45    1
    43    46    44   ar
    44    47    46   ar
    45    48    47    1
    46    49    47   ar
    47    50    43   ar
    48    51    50    1
    49    52    43    1
    50    53    52    1
    51    54    46    1
    52    55    54    1
    53    56    49    1
    54    57    56    1
    55    58    59   ar
    56    59    60    1
    57    61    59   ar
    58    62    61   ar
    59    63    62    1
    60    64    62   ar
    61    65    58   ar
    62    66    65    1
    63    67    58    1
    64    68    67    1
    65    69    61    1
    66    70    69    1
    67    71    64    1
    68    72    71    1
    69    73     1    1
    70    74    73    1
    71    75    73    1
    72    76     4    1
    73    77    76    1
    74    78    76    1
    75    79     2    1
    76    80    79    1
    77    81    79    1
    78    82     8    1
    79    83    82    1
    80    84    82    1
    81    85     3    1
    82    86    85    1
    83    87    85    1
    84    88    12    1
    85    89    88    1
    86    90    88    1
    87    91     5    1
    88    92    91    1
    89    93    91    1
    90    94    11    1
    91    95    94    1
    92    96    94    1
    93    97     6    1
    94    98    97    1
    95    99    97    1
    96   100     9    1
    97   101   100    1
    98   102   100    1
    99   103     7    1
   100   104   103    1
   101   105   103    1
   102   106    10    1
   103   107   106    1
   104   108   106    1
   105    19    20   ar
   106    34    35   ar
   107    49    50   ar
   108    64    65   ar
   109    73    76    1
   110    79    82    1
   111    85    88    1
   112    91    94    1
   113    97   100    1
   114   103   106    1
