@<TRIPOS>MOLECULE
*****
 222 240 0 0 0
SMALL
GASTEIGER

@<TRIPOS>ATOM
      1 O1          0.6818   11.8695   -6.2035 O.3     2  RES22      -0.5064
      2 H1         -0.0063   11.7042   -6.6566 H       2  RES22       0.2921
      3 C1          3.8095   17.9271   -5.2301 C.ar    2  RES22       0.0020
      4 O2          3.9619    7.3703   -2.1696 O.3     2  RES22      -0.5064
      5 H2          3.7867    6.7887   -2.7494 H       2  RES22       0.2921
      6 C2          3.3021   18.6031   -6.3386 C.ar    2  RES22       0.1241
      7 C3          2.2531   19.5116   -6.1924 C.ar    2  RES22       0.0219
      8 H3          1.9277   19.9789   -6.9524 H       2  RES22       0.0691
      9 O3         -2.6392   13.8392   -3.3587 O.3     2  RES22      -0.5064
     10 H4         -3.1319   13.5583   -3.9787 H       2  RES22       0.2921
     11 C4          1.6875   19.7389   -4.9767 C.ar    2  RES22       0.1241
     12 O4          0.6363   20.6181   -4.8261 O.3     2  RES22      -0.5064
     13 H5          0.4390   20.9472   -5.5735 H       2  RES22       0.2921
     14 C5          2.1454   19.0719   -3.8256 C.ar    2  RES22       0.0020
     15 C6          3.2101   18.1819   -4.0076 C.ar    2  RES22      -0.0473
     16 H6          3.5415   17.7230   -3.2441 H       2  RES22       0.0626
     17 C7          1.4259   19.2770   -2.4943 C.3     2  RES22       0.0161
     18 H7          1.1253   20.2293   -2.4756 H       2  RES22       0.0399
     19 C8          2.3158   19.0722   -1.2616 C.3     2  RES22      -0.0419
     20 H8          1.7477   19.1071   -0.4506 H       2  RES22       0.0274
     21 H9          2.7177   18.1681   -1.3058 H       2  RES22       0.0274
     22 O5          3.8735   18.3377   -7.5654 O.3     2  RES22      -0.5064
     23 H10         3.4932   18.7991   -8.1562 H       2  RES22       0.2921
     24 C9          0.1698   18.4220   -2.4127 C.ar    2  RES22       0.0020
     25 C10        -1.1103   18.9550   -2.6354 C.ar    2  RES22       0.1241
     26 C11        -2.2389   18.1582   -2.5232 C.ar    2  RES22       0.0219
     27 H11        -3.0958   18.5356   -2.6796 H       2  RES22       0.0691
     28 C12        -2.1385   16.8294   -2.1866 C.ar    2  RES22       0.1241
     29 O6         -3.3154   16.1168   -2.0811 O.3     2  RES22      -0.5064
     30 H12        -3.2754   15.4371   -2.5742 H       2  RES22       0.2921
     31 C13        -0.8893   16.2487   -1.9400 C.ar    2  RES22       0.0020
     32 C14         0.2251   17.0819   -2.0859 C.ar    2  RES22      -0.0473
     33 H13         1.0834   16.6975   -1.9502 H       2  RES22       0.0626
     34 C15        -0.7364   14.7761   -1.5235 C.3     2  RES22       0.0161
     35 H14        -1.6438   14.4653   -1.2378 H       2  RES22       0.0399
     36 O7         -0.0877    9.3919    2.9590 O.3     2  RES22      -0.5064
     37 H15        -0.2706    8.5880    3.1166 H       2  RES22       0.2921
     38 C16        -0.3482   13.9325   -2.7238 C.ar    2  RES22       0.0020
     39 O8          2.4814    9.9134   -5.8411 O.3     2  RES22      -0.5064
     40 H16         1.9117   10.5212   -5.9493 H       2  RES22       0.2921
     41 C17        -1.3335   13.5214   -3.6335 C.ar    2  RES22       0.1241
     42 C18        -0.9938   12.8404   -4.7846 C.ar    2  RES22       0.0219
     43 H17        -1.6732   12.5762   -5.3933 H       2  RES22       0.0691
     44 O9          3.4224    7.2698    0.4521 O.3     2  RES22      -0.5064
     45 H18         3.4796    7.2917   -0.3860 H       2  RES22       0.2921
     46 C19         0.3267   12.5369   -5.0566 C.ar    2  RES22       0.1241
     47 C20         1.3421   12.8985   -4.1640 C.ar    2  RES22       0.0020
     48 C21         0.9653   13.5959   -3.0350 C.ar    2  RES22      -0.0473
     49 H19         1.6477   13.8646   -2.4314 H       2  RES22       0.0626
     50 C22         2.7977   12.4727   -4.4275 C.3     2  RES22       0.0161
     51 H20         2.8848   12.3685   -5.4171 H       2  RES22       0.0399
     52 C23         3.8356   13.5273   -4.0076 C.3     2  RES22      -0.0419
     53 H21         3.6989   13.7465   -3.0520 H       2  RES22       0.0274
     54 H22         4.7403   13.1352   -4.0977 H       2  RES22       0.0274
     55 C24         3.7782   14.8067   -4.8135 C.3     2  RES22      -0.0514
     56 H23         2.9249   15.2707   -4.6265 H       2  RES22       0.0266
     57 H24         3.7988   14.5840   -5.7792 H       2  RES22       0.0266
     58 C25         3.0942   11.1103   -3.8239 C.ar    2  RES22       0.0020
     59 C26         2.9203    9.9233   -4.5414 C.ar    2  RES22       0.1241
     60 C27         3.2245    8.7112   -3.9719 C.ar    2  RES22       0.0219
     61 H25         3.1039    7.9150   -4.4751 H       2  RES22       0.0691
     62 C28         3.6974    8.6308   -2.6847 C.ar    2  RES22       0.1241
     63 C29         3.8959    9.7859   -1.9213 C.ar    2  RES22       0.0020
     64 C30         3.5719   10.9863   -2.5232 C.ar    2  RES22      -0.0473
     65 H26         3.6844   11.7812   -2.0148 H       2  RES22       0.0626
     66 C31         4.4297    9.7244   -0.4931 C.3     2  RES22       0.0161
     67 H27         4.9321    8.8629   -0.4166 H       2  RES22       0.0399
     68 C32         5.4415   10.8404   -0.2091 C.3     2  RES22      -0.0419
     69 H28         6.1098   10.8586   -0.9403 H       2  RES22       0.0274
     70 H29         4.9673   11.7091   -0.2125 H       2  RES22       0.0274
     71 C33         6.1714   10.6852    1.1171 C.3     2  RES22      -0.0514
     72 H30         5.5265   10.7973    1.8618 H       2  RES22       0.0266
     73 H31         6.5504    9.7723    1.1783 H       2  RES22       0.0266
     74 C34         3.2791    9.6406    0.4914 C.ar    2  RES22       0.0020
     75 C35         2.7814    8.4057    0.8994 C.ar    2  RES22       0.1241
     76 C36         1.6655    8.3332    1.7037 C.ar    2  RES22       0.0219
     77 H32         1.3305    7.4792    1.9536 H       2  RES22       0.0691
     78 C37         1.0238    9.4569    2.1543 C.ar    2  RES22       0.1241
     79 C38         1.4994   10.7456    1.8176 C.ar    2  RES22       0.0020
     80 C39         2.6188   10.7828    0.9896 C.ar    2  RES22      -0.0473
     81 H33         2.9627   11.6339    0.7447 H       2  RES22       0.0626
     82 O10        -1.3136   20.2739   -2.9517 O.3     2  RES22      -0.5064
     83 H34        -0.8533   20.4730   -3.6267 H       2  RES22       0.2921
     84 C40         0.8897   11.9803    2.4637 C.3     2  RES22       0.0161
     85 H35        -0.0822   11.7840    2.5861 H       2  RES22       0.0399
     86 C41         0.9720   13.2509    1.6204 C.3     2  RES22      -0.0419
     87 H36         0.6465   14.0055    2.1713 H       2  RES22       0.0274
     88 H37         1.9250   13.4225    1.4146 H       2  RES22       0.0274
     89 O11         3.0254   12.8137    7.6912 O.3     2  RES22      -0.5064
     90 H38         3.7628   12.4202    7.7788 H       2  RES22       0.2921
     91 C42         0.2050   13.2504    0.3248 C.3     2  RES22      -0.0514
     92 H39        -0.7230   12.9499    0.4931 H       2  RES22       0.0266
     93 H40         0.6247   12.6094   -0.3026 H       2  RES22       0.0266
     94 C43         0.1819   14.6282   -0.3026 C.3     2  RES22      -0.0419
     95 H41         1.1043   14.8647   -0.5747 H       2  RES22       0.0274
     96 H42        -0.1012   15.2815    0.3843 H       2  RES22       0.0274
     97 C44         1.4650   12.1964    3.8596 C.ar    2  RES22       0.0020
     98 C45         0.7823   11.7849    5.0226 C.ar    2  RES22       0.1241
     99 C46         1.3302   12.0114    6.2655 C.ar    2  RES22       0.0219
    100 H43         0.8535   11.7386    7.0409 H       2  RES22       0.0691
    101 C47         2.5541   12.6273    6.4067 C.ar    2  RES22       0.1241
    102 C48         3.2742   13.0542    5.2794 C.ar    2  RES22       0.0020
    103 C49         2.7084   12.8007    4.0399 C.ar    2  RES22      -0.0473
    104 H44         3.1984   13.0546    3.2662 H       2  RES22       0.0626
    105 C50         4.6137   13.7987    5.4052 C.3     2  RES22       0.0161
    106 H45         4.6626   14.1407    6.3437 H       2  RES22       0.0399
    107 O12        -0.4680   11.2063    4.9692 O.3     2  RES22      -0.5064
    108 H46        -0.4386   10.5186    4.4870 H       2  RES22       0.2921
    109 C51         4.6551   15.0276    4.4904 C.3     2  RES22      -0.0419
    110 H47         4.7341   14.7291    3.5502 H       2  RES22       0.0274
    111 H48         3.8041   15.5260    4.5806 H       2  RES22       0.0274
    112 O1A         8.9173   18.9045    6.2035 O.3     2  RES22      -0.5064
    113 H1A         9.6055   19.0698    6.6566 H       2  RES22       0.2921
    114 C1A         5.7897   12.8469    5.2301 C.ar    2  RES22       0.0020
    115 O2A         5.6373   23.4037    2.1696 O.3     2  RES22      -0.5064
    116 H2A         5.8125   23.9853    2.7494 H       2  RES22       0.2921
    117 C2A         6.2971   12.1709    6.3386 C.ar    2  RES22       0.1241
    118 C3A         7.3461   11.2625    6.1924 C.ar    2  RES22       0.0219
    119 H3A         7.6714   10.7951    6.9524 H       2  RES22       0.0691
    120 O3A        12.2384   16.9348    3.3587 O.3     2  RES22      -0.5064
    121 H4A        12.7310   17.2157    3.9787 H       2  RES22       0.2921
    122 C4A         7.9117   11.0352    4.9767 C.ar    2  RES22       0.1241
    123 O4A         8.9628   10.1560    4.8261 O.3     2  RES22      -0.5064
    124 H5A         9.1602    9.8268    5.5735 H       2  RES22       0.2921
    125 C5A         7.4538   11.7021    3.8256 C.ar    2  RES22       0.0020
    126 C6A         6.3891   12.5921    4.0076 C.ar    2  RES22      -0.0473
    127 H6A         6.0577   13.0511    3.2441 H       2  RES22       0.0626
    128 C7A         8.1733   11.4970    2.4943 C.3     2  RES22       0.0161
    129 H7A         8.4738   10.5447    2.4756 H       2  RES22       0.0399
    130 C8A         7.2834   11.7018    1.2616 C.3     2  RES22      -0.0419
    131 H8A         7.8514   11.6669    0.4506 H       2  RES22       0.0274
    132 H9A         6.8815   12.6059    1.3058 H       2  RES22       0.0274
    133 O5A         5.7257   12.4363    7.5654 O.3     2  RES22      -0.5064
    134 H10A        6.1060   11.9749    8.1562 H       2  RES22       0.2921
    135 C9A         9.4294   12.3520    2.4127 C.ar    2  RES22       0.0020
    136 C10A       10.7094   11.8190    2.6354 C.ar    2  RES22       0.1241
    137 C11A       11.8381   12.6158    2.5232 C.ar    2  RES22       0.0219
    138 H11A       12.6949   12.2384    2.6796 H       2  RES22       0.0691
    139 C12A       11.7377   13.9446    2.1866 C.ar    2  RES22       0.1241
    140 O6A        12.9146   14.6572    2.0811 O.3     2  RES22      -0.5064
    141 H12A       12.8745   15.3369    2.5742 H       2  RES22       0.2921
    142 C13A       10.4884   14.5253    1.9400 C.ar    2  RES22       0.0020
    143 C14A        9.3741   13.6921    2.0859 C.ar    2  RES22      -0.0473
    144 H13A        8.5158   14.0765    1.9502 H       2  RES22       0.0626
    145 C15A       10.3356   15.9979    1.5235 C.3     2  RES22       0.0161
    146 H14A       11.2430   16.3087    1.2378 H       2  RES22       0.0399
    147 O7A         9.6868   21.3821   -2.9590 O.3     2  RES22      -0.5064
    148 H15A        9.8698   22.1861   -3.1166 H       2  RES22       0.2921
    149 C16A        9.9474   16.8415    2.7238 C.ar    2  RES22       0.0020
    150 O8A         7.1177   20.8606    5.8411 O.3     2  RES22      -0.5064
    151 H16A        7.6875   20.2529    5.9493 H       2  RES22       0.2921
    152 C17A       10.9327   17.2526    3.6335 C.ar    2  RES22       0.1241
    153 C18A       10.5930   17.9336    4.7846 C.ar    2  RES22       0.0219
    154 H17A       11.2723   18.1978    5.3933 H       2  RES22       0.0691
    155 O9A         6.1768   23.5042   -0.4521 O.3     2  RES22      -0.5064
    156 H18A        6.1196   23.4823    0.3860 H       2  RES22       0.2921
    157 C19A        9.2725   18.2372    5.0566 C.ar    2  RES22       0.1241
    158 C20A        8.2570   17.8756    4.1640 C.ar    2  RES22       0.0020
    159 C21A        8.6338   17.1781    3.0350 C.ar    2  RES22      -0.0473
    160 H19A        7.9515   16.9095    2.4314 H       2  RES22       0.0626
    161 C22A        6.8015   18.3013    4.4275 C.3     2  RES22       0.0161
    162 H20A        6.7143   18.4055    5.4171 H       2  RES22       0.0399
    163 C23A        5.7636   17.2467    4.0076 C.3     2  RES22      -0.0419
    164 H21A        5.9003   17.0275    3.0520 H       2  RES22       0.0274
    165 H22A        4.8589   17.6388    4.0977 H       2  RES22       0.0274
    166 C24A        5.8209   15.9674    4.8135 C.3     2  RES22      -0.0514
    167 H23A        6.6743   15.5033    4.6265 H       2  RES22       0.0266
    168 H24A        5.8003   16.1900    5.7792 H       2  RES22       0.0266
    169 C25A        6.5050   19.6637    3.8239 C.ar    2  RES22       0.0020
    170 C26A        6.6789   20.8507    4.5414 C.ar    2  RES22       0.1241
    171 C27A        6.3747   22.0628    3.9719 C.ar    2  RES22       0.0219
    172 H25A        6.4953   22.8590    4.4751 H       2  RES22       0.0691
    173 C28A        5.9018   22.1432    2.6847 C.ar    2  RES22       0.1241
    174 C29A        5.7032   20.9881    1.9213 C.ar    2  RES22       0.0020
    175 C30A        6.0272   19.7877    2.5232 C.ar    2  RES22      -0.0473
    176 H26A        5.9148   18.9929    2.0148 H       2  RES22       0.0626
    177 C31A        5.1695   21.0496    0.4931 C.3     2  RES22       0.0161
    178 H27A        4.6671   21.9111    0.4166 H       2  RES22       0.0399
    179 C32A        4.1576   19.9336    0.2091 C.3     2  RES22      -0.0419
    180 H28A        3.4893   19.9154    0.9403 H       2  RES22       0.0274
    181 H29A        4.6319   19.0649    0.2125 H       2  RES22       0.0274
    182 C33A        3.4278   20.0888   -1.1171 C.3     2  RES22      -0.0514
    183 H30A        4.0727   19.9767   -1.8618 H       2  RES22       0.0266
    184 H31A        3.0487   21.0017   -1.1783 H       2  RES22       0.0266
    185 C34A        6.3201   21.1334   -0.4914 C.ar    2  RES22       0.0020
    186 C35A        6.8177   22.3683   -0.8994 C.ar    2  RES22       0.1241
    187 C36A        7.9337   22.4408   -1.7037 C.ar    2  RES22       0.0219
    188 H32A        8.2687   23.2948   -1.9536 H       2  RES22       0.0691
    189 C37A        8.5754   21.3171   -2.1543 C.ar    2  RES22       0.1241
    190 C38A        8.0997   20.0284   -1.8176 C.ar    2  RES22       0.0020
    191 C39A        6.9804   19.9912   -0.9896 C.ar    2  RES22      -0.0473
    192 H33A        6.6365   19.1401   -0.7447 H       2  RES22       0.0626
    193 O10A       10.9128   10.5001    2.9517 O.3     2  RES22      -0.5064
    194 H34A       10.4525   10.3010    3.6267 H       2  RES22       0.2921
    195 C40A        8.7095   18.7937   -2.4637 C.3     2  RES22       0.0161
    196 H35A        9.6814   18.9900   -2.5861 H       2  RES22       0.0399
    197 C41A        8.6272   17.5232   -1.6204 C.3     2  RES22      -0.0419
    198 H36A        8.9527   16.7685   -2.1713 H       2  RES22       0.0274
    199 H37A        7.6742   17.3515   -1.4146 H       2  RES22       0.0274
    200 O11A        6.5738   17.9603   -7.6912 O.3     2  RES22      -0.5064
    201 H38A        5.8364   18.3538   -7.7788 H       2  RES22       0.2921
    202 C42A        9.3941   17.5236   -0.3248 C.3     2  RES22      -0.0514
    203 H39A       10.3222   17.8241   -0.4931 H       2  RES22       0.0266
    204 H40A        8.9745   18.1646    0.3026 H       2  RES22       0.0266
    205 C43A        9.4173   16.1458    0.3026 C.3     2  RES22      -0.0419
    206 H41A        8.4949   15.9093    0.5747 H       2  RES22       0.0274
    207 H42A        9.7004   15.4925   -0.3843 H       2  RES22       0.0274
    208 C44A        8.1341   18.5776   -3.8596 C.ar    2  RES22       0.0020
    209 C45A        8.8169   18.9891   -5.0226 C.ar    2  RES22       0.1241
    210 C46A        8.2690   18.7627   -6.2655 C.ar    2  RES22       0.0219
    211 H43A        8.7457   19.0354   -7.0409 H       2  RES22       0.0691
    212 C47A        7.0451   18.1467   -6.4067 C.ar    2  RES22       0.1241
    213 C48A        6.3249   17.7199   -5.2794 C.ar    2  RES22       0.0020
    214 C49A        6.8907   17.9733   -4.0399 C.ar    2  RES22      -0.0473
    215 H44A        6.4008   17.7194   -3.2662 H       2  RES22       0.0626
    216 C50A        4.9855   16.9753   -5.4052 C.3     2  RES22       0.0161
    217 H45A        4.9366   16.6333   -6.3437 H       2  RES22       0.0399
    218 O12A       10.0671   19.5677   -4.9692 O.3     2  RES22      -0.5064
    219 H46A       10.0378   20.2554   -4.4870 H       2  RES22       0.2921
    220 C51A        4.9440   15.7464   -4.4904 C.3     2  RES22      -0.0419
    221 H47A        4.8650   16.0449   -3.5502 H       2  RES22       0.0274
    222 H48A        5.7951   15.2481   -4.5806 H       2  RES22       0.0274
@<TRIPOS>BOND
     1     1     2    1
     2     3     6   ar
     3     4     5    1
     4     6     7   ar
     5     7     8    1
     6     9    10    1
     7    11     7   ar
     8    12    11    1
     9    13    12    1
    10    14    11   ar
    11    15     3   ar
    12    16    15    1
    13    17    14    1
    14    18    17    1
    15    19    17    1
    16    20    19    1
    17    21    19    1
    18    22     6    1
    19    23    22    1
    20    24    17    1
    21    25    24   ar
    22    26    25   ar
    23    27    26    1
    24    28    26   ar
    25    29    28    1
    26    30    29    1
    27    31    28   ar
    28    32    24   ar
    29    33    32    1
    30    34    31    1
    31    35    34    1
    32    36    37    1
    33    38    34    1
    34    39    40    1
    35    41     9    1
    36    42    41   ar
    37    43    42    1
    38    44    45    1
    39    46     1    1
    40    47    46   ar
    41    48    38   ar
    42    49    48    1
    43    50    47    1
    44    51    50    1
    45    52    50    1
    46    53    52    1
    47    54    52    1
    48    55    52    1
    49    56    55    1
    50    57    55    1
    51    58    50    1
    52    59    39    1
    53    60    59   ar
    54    61    60    1
    55    62     4    1
    56    63    62   ar
    57    64    58   ar
    58    65    64    1
    59    66    63    1
    60    67    66    1
    61    68    66    1
    62    69    68    1
    63    70    68    1
    64    71    68    1
    65    72    71    1
    66    73    71    1
    67    74    66    1
    68    75    44    1
    69    76    75   ar
    70    77    76    1
    71    78    36    1
    72    79    78   ar
    73    80    74   ar
    74    81    80    1
    75    82    25    1
    76    83    82    1
    77    84    79    1
    78    85    84    1
    79    86    84    1
    80    87    86    1
    81    88    86    1
    82    89    90    1
    83    91    86    1
    84    92    91    1
    85    93    91    1
    86    94    34    1
    87    95    94    1
    88    96    94    1
    89    97    84    1
    90    98    97   ar
    91    99    98   ar
    92   100    99    1
    93   101    89    1
    94   102   101   ar
    95   103    97   ar
    96   104   103    1
    97   105   102    1
    98   106   105    1
    99   107    98    1
   100   108   107    1
   101   109   105    1
   102   110   109    1
   103   111   109    1
   104   112   113    1
   105   114   105    1
   106   115   116    1
   107   117   114   ar
   108   118   117   ar
   109   119   118    1
   110   120   121    1
   111   122   118   ar
   112   123   122    1
   113   124   123    1
   114   125   122   ar
   115   126   114   ar
   116   127   126    1
   117   128   125    1
   118   129   128    1
   119   130    71    1
   120   131   130    1
   121   132   130    1
   122   133   117    1
   123   134   133    1
   124   135   128    1
   125   136   135   ar
   126   137   136   ar
   127   138   137    1
   128   139   137   ar
   129   140   139    1
   130   141   140    1
   131   142   139   ar
   132   143   135   ar
   133   144   143    1
   134   145   142    1
   135   146   145    1
   136   147   148    1
   137   149   145    1
   138   150   151    1
   139   152   120    1
   140   153   152   ar
   141   154   153    1
   142   155   156    1
   143   157   112    1
   144   158   157   ar
   145   159   149   ar
   146   160   159    1
   147   161   158    1
   148   162   161    1
   149   163   161    1
   150   164   163    1
   151   165   163    1
   152   166   109    1
   153   167   166    1
   154   168   166    1
   155   169   161    1
   156   170   150    1
   157   171   170   ar
   158   172   171    1
   159   173   115    1
   160   174   173   ar
   161   175   169   ar
   162   176   175    1
   163   177   174    1
   164   178   177    1
   165   179   177    1
   166   180   179    1
   167   181   179    1
   168   182    19    1
   169   183   182    1
   170   184   182    1
   171   185   177    1
   172   186   155    1
   173   187   186   ar
   174   188   187    1
   175   189   147    1
   176   190   189   ar
   177   191   185   ar
   178   192   191    1
   179   193   136    1
   180   194   193    1
   181   195   190    1
   182   196   195    1
   183   197   195    1
   184   198   197    1
   185   199   197    1
   186   200   201    1
   187   202   197    1
   188   203   202    1
   189   204   202    1
   190   205   145    1
   191   206   205    1
   192   207   205    1
   193   208   195    1
   194   209   208   ar
   195   210   209   ar
   196   211   210    1
   197   212   200    1
   198   213   212   ar
   199   214   208   ar
   200   215   214    1
   201   216     3    1
   202   217   216    1
   203   218   209    1
   204   219   218    1
   205   220    55    1
   206   221   220    1
   207   222   220    1
   208    14    15   ar
   209    31    32   ar
   210    38    41   ar
   211    42    46   ar
   212    47    48   ar
   213    58    59   ar
   214    60    62   ar
   215    63    64   ar
   216    74    75   ar
   217    76    78   ar
   218    79    80   ar
   219    91    94    1
   220    99   101   ar
   221   102   103   ar
   222   125   126   ar
   223   128   130    1
   224   142   143   ar
   225   149   152   ar
   226   153   157   ar
   227   158   159   ar
   228   163   166    1
   229   169   170   ar
   230   171   173   ar
   231   174   175   ar
   232   179   182    1
   233   185   186   ar
   234   187   189   ar
   235   190   191   ar
   236   202   205    1
   237   210   212   ar
   238   213   214   ar
   239   213   216    1
   240   216   220    1
