####################################################################### 
# 
# This file contains crystal structure data downloaded from the 
# Cambridge Structural Database (CSD) hosted by the Cambridge 
# Crystallographic Data Centre (CCDC).
# 
# Full information about CCDC data access policies and citation 
# guidelines are available at http://www.ccdc.cam.ac.uk/access/V1 
# 
# Audit and citation data items may have been added by the CCDC. 
# Please retain this information to preserve the provenance of 
# this file and to allow appropriate attribution of the data. 
# 
#######################################################################
@<TRIPOS>MOLECULE
720849
   144   132     2     0     0
SMALL
NO_CHARGES
****
Generated from the CSD

@<TRIPOS>ATOM
     1 N1       8.8482  10.6602   8.6669   N.2       1 RES1   0.0000
     2 N2       9.3484   9.1469  11.1154   N.2       1 RES1   0.0000
     3 N3      13.8804   6.6517   3.1933   N.2       1 RES1   0.0000
     4 N4      12.4511   9.1729   3.5078   N.2       1 RES1   0.0000
     5 C1       9.3315  11.2828   9.9337   C.3       1 RES1   0.0000
     6 C2       8.7431  10.4847  11.1176   C.3       1 RES1   0.0000
     7 C3       8.8322  12.6613  10.1085   C.3       1 RES1   0.0000
     8 C4      14.4632   7.9635   2.9181   C.3       1 RES1   0.0000
     9 C5      13.3661   8.8981   2.3906   C.3       1 RES1   0.0000
    10 C6      15.4984   7.9358   1.8653   C.3       1 RES1   0.0000
    11 C7       9.7707  10.4603   7.7583   C.2       1 RES1   0.0000
    12 C8       9.3803   9.8979   6.4445   C.ar      1 RES1   0.0000
    13 C9       8.0777   9.6833   6.0644   C.ar      1 RES1   0.0000
    14 C10      7.7830   9.1729   4.8162   C.ar      1 RES1   0.0000
    15 C11      8.8613   8.8429   3.9381   C.ar      1 RES1   0.0000
    16 C12     10.1668   9.1111   4.3062   C.ar      1 RES1   0.0000
    17 C13     10.4305   9.6394   5.5774   C.ar      1 RES1   0.0000
    18 C14     11.2582   8.8494   3.3331   C.2       1 RES1   0.0000
    19 C15      8.5347   8.1862  11.1602   C.2       1 RES1   0.0000
    20 C16      9.0190   6.7557  11.1558   C.ar      1 RES1   0.0000
    21 C17     10.3723   6.3688  11.1776   C.ar      1 RES1   0.0000
    22 C18     13.9639   6.2404   4.4033   C.2       1 RES1   0.0000
    23 H1       9.1532  13.0189  10.9625   H         1 RES1   0.0000
    24 H2      10.3310  11.2682   9.9687   H         1 RES1   0.0000
    25 H3       8.9439  10.9463  11.9705   H         1 RES1   0.0000
    26 H4       7.7614  10.4131  11.0247   H         1 RES1   0.0000
    27 H5       9.1616  13.2221   9.3746   H         1 RES1   0.0000
    28 H6      15.1127   7.5831   1.0375   H         1 RES1   0.0000
    29 H7      10.6773  10.6749   7.9396   H         1 RES1   0.0000
    30 H8       7.3719   9.8881   6.6673   H         1 RES1   0.0000
    31 H9       8.6792   8.4365   3.0994   H         1 RES1   0.0000
    32 H10     11.3268   9.8166   5.8438   H         1 RES1   0.0000
    33 H11     11.0330   8.4072   2.5228   H         1 RES1   0.0000
    34 H12      7.6028   8.3634  11.1962   H         1 RES1   0.0000
    35 H13     11.0471   7.0369  11.2071   H         1 RES1   0.0000
    36 H14     14.3778   6.7980   5.0531   H         1 RES1   0.0000
    37 H15      7.8524  12.6580  10.1030   H         1 RES1   0.0000
    38 H16     14.8508   8.3422   3.7590   H         1 RES1   0.0000
    39 H17     13.7631   9.7418   2.0586   H         1 RES1   0.0000
    40 H18     12.8762   8.4658   1.6458   H         1 RES1   0.0000
    41 H19     16.2398   7.3636   2.1514   H         1 RES1   0.0000
    42 H20     15.8287   8.8461   1.7091   H         1 RES1   0.0000
    43 N1A      5.1139   2.3326   8.6669   N.2       1 RES1   0.0000
    44 N1B     14.1929   3.2624   8.6669   N.2       1 RES1   0.0000
    45 N2A      6.1744   3.5225  11.1154   N.2       1 RES1   0.0000
    46 N2B     12.6322   3.5859  11.1154   N.2       1 RES1   0.0000
    47 N3A      6.0693   8.6950   3.1933   N.2       1 RES1   0.0000
    48 N3B      8.2053   0.9087   3.1933   N.2       1 RES1   0.0000
    49 N4A      4.6005   6.1965   3.5078   N.2       1 RES1   0.0000
    50 N4B     11.1034   0.8859   3.5078   N.2       1 RES1   0.0000
    51 C1A      4.3331   2.4399   9.9337   C.3       1 RES1   0.0000
    52 C1B     14.4904   2.5326   9.9337   C.3       1 RES1   0.0000
    53 C2A      5.3185   2.3294  11.1176   C.3       1 RES1   0.0000
    54 C2B     14.0935   3.4412  11.1176   C.3       1 RES1   0.0000
    55 C3A      3.3889   1.3183  10.1085   C.3       1 RES1   0.0000
    56 C3B     15.9339   2.2757  10.1085   C.3       1 RES1   0.0000
    57 C4A      4.6418   8.5438   2.9181   C.3       1 RES1   0.0000
    58 C4B      9.0500  -0.2520   2.9181   C.3       1 RES1   0.0000
    59 C5A      4.3809   7.1263   2.3906   C.3       1 RES1   0.0000
    60 C5B     10.4080   0.2308   2.3906   C.3       1 RES1   0.0000
    61 C6A      4.1482   9.4541   1.8653   C.3       1 RES1   0.0000
    62 C6B      8.5084  -1.1346   1.8653   C.3       1 RES1   0.0000
    63 C7A      4.8258   3.2316   7.7583   C.2       1 RES1   0.0000
    64 C7B     13.5585   2.5635   7.7583   C.2       1 RES1   0.0000
    65 C8A      5.5081   3.1747   6.4445   C.ar      1 RES1   0.0000
    66 C8B     13.2666   3.1828   6.4445   C.ar      1 RES1   0.0000
    67 C9A      6.3452   2.1538   6.0644   C.ar      1 RES1   0.0000
    68 C9B     13.7321   4.4182   6.0644   C.ar      1 RES1   0.0000
    69 C10A     6.9346   2.1538   4.8162   C.ar      1 RES1   0.0000
    70 C10B    13.4374   4.9286   4.8162   C.ar      1 RES1   0.0000
    71 C11A     6.6812   3.2527   3.9381   C.ar      1 RES1   0.0000
    72 C11B    12.6125   4.1597   3.9381   C.ar      1 RES1   0.0000
    73 C12A     5.7962   4.2491   4.3062   C.ar      1 RES1   0.0000
    74 C12B    12.1921   2.8951   4.3062   C.ar      1 RES1   0.0000
    75 C13A     5.2068   4.2134   5.5774   C.ar      1 RES1   0.0000
    76 C13B    12.5177   2.4025   5.5774   C.ar      1 RES1   0.0000
    77 C14A     5.4771   5.3252   3.3331   C.2       1 RES1   0.0000
    78 C14B    11.4197   2.0807   3.3331   C.2       1 RES1   0.0000
    79 C15A     7.4132   3.2982  11.1602   C.2       1 RES1   0.0000
    80 C15B    12.2071   4.7709  11.1602   C.2       1 RES1   0.0000
    81 C16A     8.4099   4.4328  11.1558   C.ar      1 RES1   0.0000
    82 C16B    10.7261   5.0668  11.1558   C.ar      1 RES1   0.0000
    83 C17A     8.0683   5.7983  11.1776   C.ar      1 RES1   0.0000
    84 C17B     9.7144   4.0882  11.1776   C.ar      1 RES1   0.0000
    85 C18A     6.3837   8.9729   4.4033   C.2       1 RES1   0.0000
    86 C18B     7.8074   1.0420   4.4033   C.2       1 RES1   0.0000
    87 H1A      2.9187   1.4175  10.9625   H         1 RES1   0.0000
    88 H1B     16.0831   1.8190  10.9625   H         1 RES1   0.0000
    89 H2A      3.8460   3.3128   9.9687   H         1 RES1   0.0000
    90 H2B     13.9780   1.6743   9.9687   H         1 RES1   0.0000
    91 H3A      4.8183   2.2725  11.9705   H         1 RES1   0.0000
    92 H3B     14.3928   3.0365  11.9705   H         1 RES1   0.0000
    93 H4A      5.8713   1.5150  11.0247   H         1 RES1   0.0000
    94 H4B     14.5223   4.3272  11.0247   H         1 RES1   0.0000
    95 H5A      2.7385   1.3232   9.3746   H         1 RES1   0.0000
    96 H5B     16.2548   1.7101   9.3746   H         1 RES1   0.0000
    97 H6A      4.6465   9.2964   1.0375   H         1 RES1   0.0000
    98 H6B      8.3958  -0.6242   1.0375   H         1 RES1   0.0000
    99 H7A      4.1866   3.9094   7.9396   H         1 RES1   0.0000
   100 H7B     13.2910   1.6710   7.9396   H         1 RES1   0.0000
   101 H8A      6.5207   1.4402   6.6673   H         1 RES1   0.0000
   102 H8B     14.2624   4.9270   6.6673   H         1 RES1   0.0000
   103 H9A      7.1242   3.2982   3.0994   H         1 RES1   0.0000
   104 H9B     12.3516   4.5206   3.0994   H         1 RES1   0.0000
   105 H10A     4.6052   4.9010   5.8438   H         1 RES1   0.0000
   106 H10B    12.2230   1.5378   5.8438   H         1 RES1   0.0000
   107 H11A     5.9726   5.3512   2.5228   H         1 RES1   0.0000
   108 H11B    11.1494   2.4968   2.5228   H         1 RES1   0.0000
   109 H12A     7.7257   2.4025  11.1962   H         1 RES1   0.0000
   110 H12B    12.8265   5.4894  11.1962   H         1 RES1   0.0000
   111 H13A     7.1523   6.0486  11.2071   H         1 RES1   0.0000
   112 H13B     9.9556   3.1698  11.2071   H         1 RES1   0.0000
   113 H14A     5.6939   9.0526   5.0531   H         1 RES1   0.0000
   114 H14B     8.0833   0.4048   5.0531   H         1 RES1   0.0000
   115 H15A     3.8816   0.4714  10.1030   H         1 RES1   0.0000
   116 H15B    16.4209   3.1259  10.1030   H         1 RES1   0.0000
   117 H16A     4.1200   8.6901   3.7590   H         1 RES1   0.0000
   118 H16B     9.1842  -0.7770   3.7590   H         1 RES1   0.0000
   119 H17A     3.4518   7.0483   2.0586   H         1 RES1   0.0000
   120 H17B    10.9401  -0.5348   2.0586   H         1 RES1   0.0000
   121 H18A     5.0003   6.9183   1.6458   H         1 RES1   0.0000
   122 H18B    10.2785   0.8713   1.6458   H         1 RES1   0.0000
   123 H19A     4.2730  10.3823   2.1514   H         1 RES1   0.0000
   124 H19B     7.6422  -1.4906   2.1514   H         1 RES1   0.0000
   125 H20A     3.1947   9.2850   1.7091   H         1 RES1   0.0000
   126 H20B     9.1316  -1.8759   1.7091   H         1 RES1   0.0000
   127 C19?     9.3315  11.2828   9.9337   C.3       2 RES2   0.0000
   128 C20?     8.7431  10.4847  11.1176   C.3       2 RES2   0.0000
   129 C21?     9.0950  11.3056  12.3025   C.3       2 RES2   0.0000
   130 C22?    14.4632   7.9635   2.9181   C.3       2 RES2   0.0000
   131 C23?    13.3661   8.8981   2.3906   C.3       2 RES2   0.0000
   132 C24?    14.0005   9.9710   1.6163   C.3       2 RES2   0.0000
   133 H21?     9.0378  12.2272   9.9829   H         2 RES2   0.0000
   134 H22?    10.3207  11.2600   9.9676   H         2 RES2   0.0000
   135 H23?     7.7511  10.4148  11.0280   H         2 RES2   0.0000
   136 H24?    10.0495  11.5218  12.2785   H         2 RES2   0.0000
   137 H25?     8.8942  10.8016  13.1194   H         2 RES2   0.0000
   138 H26?     8.5723  12.1330  12.2938   H         2 RES2   0.0000
   139 H27?    15.1849   7.8773   2.2454   H         2 RES2   0.0000
   140 H28?    14.8546   8.3390   3.7470   H         2 RES2   0.0000
   141 H29?    12.8406   8.3585   1.7332   H         2 RES2   0.0000
   142 H30?    14.8931  10.1514   1.9745   H         2 RES2   0.0000
   143 H31?    13.4543  10.7838   1.6731   H         2 RES2   0.0000
   144 H32?    14.0756   9.6947   0.6771   H         2 RES2   0.0000
@<TRIPOS>BOND
     1     1     5    1
     2     2     6    1
     3     3     8    1
     4     4     9    1
     5     5     6    1
     6     6    25    1
     7     7     5    1
     8     8     9    1
     9     9    39    1
    10    10     8    1
    11    11     1    2
    12    12    11    1
    13    13    12   ar
    14    14    13   ar
    15    15    14   ar
    16    16    15   ar
    17    17    12   ar
    18    18     4    2
    19    19     2    2
    20    20    19    1
    21    21    20   ar
    22    22     3    2
    23    23     7    1
    24    24     5    1
    25    26     6    1
    26    27     7    1
    27    28    10    1
    28    29    11    1
    29    30    13    1
    30    31    15    1
    31    32    17    1
    32    33    18    1
    33    34    19    1
    34    35    21    1
    35    36    22    1
    36    37     7    1
    37    38     8    1
    38    40     9    1
    39    41    10    1
    40    42    10    1
    41    43    51    1
    42    44    52    1
    43    45    53    1
    44    46    54    1
    45    47    57    1
    46    48    58    1
    47    49    59    1
    48    50    60    1
    49    51    53    1
    50    52    54    1
    51    53    91    1
    52    54    92    1
    53    55    51    1
    54    56    52    1
    55    57    59    1
    56    58    60    1
    57    59   119    1
    58    60   120    1
    59    61    57    1
    60    62    58    1
    61    63    43    2
    62    64    44    2
    63    65    63    1
    64    66    64    1
    65    67    65   ar
    66    68    66   ar
    67    69    67   ar
    68    70    22    1
    69    71    69   ar
    70    72    70   ar
    71    73    71   ar
    72    74    72   ar
    73    75    65   ar
    74    76    66   ar
    75    77    49    2
    76    78    50    2
    77    79    45    2
    78    80    46    2
    79    81    79    1
    80    82    21   ar
    81    83    20   ar
    82    84    81   ar
    83    85    14    1
    84    86    48    2
    85    87    55    1
    86    88    56    1
    87    89    51    1
    88    90    52    1
    89    93    53    1
    90    94    54    1
    91    95    55    1
    92    96    56    1
    93    97    61    1
    94    98    62    1
    95    99    63    1
    96   100    64    1
    97   101    67    1
    98   102    68    1
    99   103    71    1
   100   104    72    1
   101   105    75    1
   102   106    76    1
   103   107    77    1
   104   108    78    1
   105   109    79    1
   106   110    80    1
   107   111    83    1
   108   112    84    1
   109   113    85    1
   110   114    86    1
   111   115    55    1
   112   116    56    1
   113   117    57    1
   114   118    58    1
   115   121    59    1
   116   122    60    1
   117   123    61    1
   118   124    62    1
   119   125    61    1
   120   126    62    1
   121    16    17   ar
   122    16    18    1
   123    47    85    2
   124    68    70   ar
   125    69    86    1
   126    73    75   ar
   127    73    77    1
   128    74    76   ar
   129    74    78    1
   130    80    82    1
   131    81    83   ar
   132    82    84   ar
@<TRIPOS>SUBSTRUCTURE
     1 RES1        1 GROUP             0 ****  ****    0  
     2 RES2      127 GROUP             0 ****  ****    0  
@<TRIPOS>CRYSIN
   18.7700   18.7700   10.9210   90.0000   90.0000  120.0000   147     1
 

