####################################################################### 
# 
# This file contains crystal structure data downloaded from the 
# Cambridge Structural Database (CSD) hosted by the Cambridge 
# Crystallographic Data Centre (CCDC).
# 
# Full information about CCDC data access policies and citation 
# guidelines are available at http://www.ccdc.cam.ac.uk/access/V1 
# 
# Audit and citation data items may have been added by the CCDC. 
# Please retain this information to preserve the provenance of 
# this file and to allow appropriate attribution of the data. 
# 
#######################################################################
@<TRIPOS>MOLECULE
720850
   168   180     1     0     0
SMALL
NO_CHARGES
****
Generated from the CSD

@<TRIPOS>ATOM
     1 N1      19.7150   5.2958  25.4897   N.2       1 RES1   0.0000
     2 C1      21.3330   4.8692  27.8206   C.ar      1 RES1   0.0000
     3 C2      20.2269   4.1044  27.4853   C.ar      1 RES1   0.0000
     4 C3      19.4120   4.4268  26.3153   C.2       1 RES1   0.0000
     5 C4      18.8482   5.4934  24.3392   C.3       1 RES1   0.0000
     6 C5      19.6565   5.2229  23.0789   C.3       1 RES1   0.0000
     7 C6      18.8158   5.4957  21.8389   C.3       1 RES1   0.0000
     8 H1      21.5512   5.6048  27.2949   H         1 RES1   0.0000
     9 H2      18.6223   3.9531  26.1863   H         1 RES1   0.0000
    10 H3      18.0891   4.8757  24.3858   H         1 RES1   0.0000
    11 H4      19.9516   4.2978  23.0739   H         1 RES1   0.0000
    12 H5      20.4426   5.7908  23.0690   H         1 RES1   0.0000
    13 H6      19.3341   5.3097  21.0403   H         1 RES1   0.0000
    14 H7      18.0370   4.9154  21.8339   H         1 RES1   0.0000
    15 N1N     19.5042   0.6897  29.8850   N.2       1 RES1   0.0000
    16 N1O     24.1103   5.0850  30.0958   N.2       1 RES1   0.0000
    17 N1VB    17.4850   7.1042  25.4897   N.2       1 RES1   0.0000
    18 N1NA    24.1103   7.3150  31.9042   N.2       1 RES1   0.0000
    19 N1GB    17.6958   0.6897  32.1150   N.2       1 RES1   0.0000
    20 N1IB    13.0897   5.0850  31.9042   N.2       1 RES1   0.0000
    21 N1DC    13.0897   7.3150  30.0958   N.2       1 RES1   0.0000
    22 N1KC    17.6958  11.7103  29.8850   N.2       1 RES1   0.0000
    23 N1CA    19.7150   7.1042  36.5103   N.2       1 RES1   0.0000
    24 N1JA    19.5042  11.7103  32.1150   N.2       1 RES1   0.0000
    25 N1DB    17.4850   5.2958  36.5103   N.2       1 RES1   0.0000
    26 C1N     19.9308   3.0206  28.2670   C.ar      1 RES1   0.0000
    27 C1O     21.7794   3.4670  29.6692   C.ar      1 RES1   0.0000
    28 C1VB    15.8670   7.5308  27.8206   C.ar      1 RES1   0.0000
    29 C1NA    21.7794   8.9330  32.3308   C.ar      1 RES1   0.0000
    30 C1GB    17.2692   3.0206  33.7330   C.ar      1 RES1   0.0000
    31 C1IB    15.4206   3.4670  32.3308   C.ar      1 RES1   0.0000
    32 C1DC    15.4206   8.9330  29.6692   C.ar      1 RES1   0.0000
    33 C1KC    17.2692   9.3794  28.2670   C.ar      1 RES1   0.0000
    34 C1CA    21.3330   7.5308  34.1794   C.ar      1 RES1   0.0000
    35 C1JA    19.9308   9.3794  33.7330   C.ar      1 RES1   0.0000
    36 C1DB    15.8670   4.8692  34.1794   C.ar      1 RES1   0.0000
    37 C2N     20.6956   2.6853  29.3731   C.ar      1 RES1   0.0000
    38 C2O     22.1147   4.5731  28.9044   C.ar      1 RES1   0.0000
    39 C2VB    16.9731   8.2956  27.4853   C.ar      1 RES1   0.0000
    40 C2NA    22.1147   7.8269  33.0956   C.ar      1 RES1   0.0000
    41 C2GB    16.5044   2.6853  32.6269   C.ar      1 RES1   0.0000
    42 C2IB    15.0853   4.5731  33.0956   C.ar      1 RES1   0.0000
    43 C2DC    15.0853   7.8269  28.9044   C.ar      1 RES1   0.0000
    44 C2KC    16.5044   9.7147  29.3731   C.ar      1 RES1   0.0000
    45 C2CA    20.2269   8.2956  34.5147   C.ar      1 RES1   0.0000
    46 C2JA    20.6956   9.7147  32.6269   C.ar      1 RES1   0.0000
    47 C2DB    16.9731   4.1044  34.5147   C.ar      1 RES1   0.0000
    48 C3N     20.3732   1.5153  30.1880   C.2       1 RES1   0.0000
    49 C3O     23.2847   5.3880  29.2268   C.2       1 RES1   0.0000
    50 C3VB    17.7880   7.9732  26.3153   C.2       1 RES1   0.0000
    51 C3NA    23.2847   7.0120  32.7732   C.2       1 RES1   0.0000
    52 C3GB    16.8268   1.5153  31.8120   C.2       1 RES1   0.0000
    53 C3IB    13.9153   5.3880  32.7732   C.2       1 RES1   0.0000
    54 C3DC    13.9153   7.0120  29.2268   C.2       1 RES1   0.0000
    55 C3KC    16.8268  10.8847  30.1880   C.2       1 RES1   0.0000
    56 C3CA    19.4120   7.9732  35.6847   C.2       1 RES1   0.0000
    57 C3JA    20.3732  10.8847  31.8120   C.2       1 RES1   0.0000
    58 C3DB    17.7880   4.4268  35.6847   C.2       1 RES1   0.0000
    59 C4N     19.3066  -0.4608  30.7518   C.3       1 RES1   0.0000
    60 C4O     25.2608   5.9518  30.2934   C.3       1 RES1   0.0000
    61 C4VB    18.3518   6.9066  24.3392   C.3       1 RES1   0.0000
    62 C4NA    25.2608   6.4482  31.7066   C.3       1 RES1   0.0000
    63 C4GB    17.8934  -0.4608  31.2482   C.3       1 RES1   0.0000
    64 C4IB    11.9392   5.9518  31.7066   C.3       1 RES1   0.0000
    65 C4DC    11.9392   6.4482  30.2934   C.3       1 RES1   0.0000
    66 C4KC    17.8934  12.8608  30.7518   C.3       1 RES1   0.0000
    67 C4CA    18.8482   6.9066  37.6608   C.3       1 RES1   0.0000
    68 C4JA    19.3066  12.8608  31.2482   C.3       1 RES1   0.0000
    69 C4DB    18.3518   5.4934  37.6608   C.3       1 RES1   0.0000
    70 C5N     19.5771  -1.7211  29.9435   C.3       1 RES1   0.0000
    71 C5O     26.5211   5.1435  30.0229   C.3       1 RES1   0.0000
    72 C5VB    17.5435   7.1771  23.0789   C.3       1 RES1   0.0000
    73 C5NA    26.5211   7.2565  31.9771   C.3       1 RES1   0.0000
    74 C5GB    17.6229  -1.7211  32.0565   C.3       1 RES1   0.0000
    75 C5IB    10.6789   5.1435  31.9771   C.3       1 RES1   0.0000
    76 C5DC    10.6789   7.2565  30.0229   C.3       1 RES1   0.0000
    77 C5KC    17.6229  14.1211  29.9435   C.3       1 RES1   0.0000
    78 C5CA    19.6565   7.1771  38.9211   C.3       1 RES1   0.0000
    79 C5JA    19.5771  14.1211  32.0565   C.3       1 RES1   0.0000
    80 C5DB    17.5435   5.2229  38.9211   C.3       1 RES1   0.0000
    81 C6N     19.3043  -2.9611  30.7842   C.3       1 RES1   0.0000
    82 C6O     27.7611   5.9842  30.2957   C.3       1 RES1   0.0000
    83 C6VB    18.3842   6.9043  21.8389   C.3       1 RES1   0.0000
    84 C6NA    27.7611   6.4158  31.7043   C.3       1 RES1   0.0000
    85 C6GB    17.8957  -2.9611  31.2158   C.3       1 RES1   0.0000
    86 C6IB     9.4389   5.9842  31.7043   C.3       1 RES1   0.0000
    87 C6DC     9.4389   6.4158  30.2957   C.3       1 RES1   0.0000
    88 C6KC    17.8957  15.3611  30.7842   C.3       1 RES1   0.0000
    89 C6CA    18.8158   6.9043  40.1611   C.3       1 RES1   0.0000
    90 C6JA    19.3043  15.3611  31.2158   C.3       1 RES1   0.0000
    91 C6DB    18.3842   5.4957  40.1611   C.3       1 RES1   0.0000
    92 H1N     19.1952   2.4949  28.0488   H         1 RES1   0.0000
    93 H1O     22.3051   3.2488  30.4048   H         1 RES1   0.0000
    94 H1VB    15.6488   6.7952  27.2949   H         1 RES1   0.0000
    95 H1NA    22.3051   9.1512  31.5952   H         1 RES1   0.0000
    96 H1GB    18.0048   2.4949  33.9512   H         1 RES1   0.0000
    97 H1IB    14.8949   3.2488  31.5952   H         1 RES1   0.0000
    98 H1DC    14.8949   9.1512  30.4048   H         1 RES1   0.0000
    99 H1KC    18.0048   9.9051  28.0488   H         1 RES1   0.0000
   100 H1CA    21.5512   6.7952  34.7051   H         1 RES1   0.0000
   101 H1JA    19.1952   9.9051  33.9512   H         1 RES1   0.0000
   102 H1DB    15.6488   5.6048  34.7051   H         1 RES1   0.0000
   103 H2N     20.8469   1.3863  30.9777   H         1 RES1   0.0000
   104 H2O     23.4137   6.1777  28.7531   H         1 RES1   0.0000
   105 H2VB    18.5777   8.4469  26.1863   H         1 RES1   0.0000
   106 H2NA    23.4137   6.2223  33.2469   H         1 RES1   0.0000
   107 H2GB    16.3531   1.3863  31.0223   H         1 RES1   0.0000
   108 H2IB    13.7863   6.1777  33.2469   H         1 RES1   0.0000
   109 H2DC    13.7863   6.2223  28.7531   H         1 RES1   0.0000
   110 H2KC    16.3531  11.0137  30.9777   H         1 RES1   0.0000
   111 H2CA    18.6223   8.4469  35.8137   H         1 RES1   0.0000
   112 H2JA    20.8469  11.0137  31.0223   H         1 RES1   0.0000
   113 H2DB    18.5777   3.9531  35.8137   H         1 RES1   0.0000
   114 H3N     19.9243  -0.4142  31.5109   H         1 RES1   0.0000
   115 H3O     25.2142   6.7109  29.6757   H         1 RES1   0.0000
   116 H3VB    19.1109   7.5243  24.3858   H         1 RES1   0.0000
   117 H3NA    25.2142   5.6891  32.3243   H         1 RES1   0.0000
   118 H3GB    17.2757  -0.4142  30.4891   H         1 RES1   0.0000
   119 H3IB    11.9858   6.7109  32.3243   H         1 RES1   0.0000
   120 H3DC    11.9858   5.6891  29.6757   H         1 RES1   0.0000
   121 H3KC    17.2757  12.8142  31.5109   H         1 RES1   0.0000
   122 H3CA    18.0891   7.5243  37.6142   H         1 RES1   0.0000
   123 H3JA    19.9243  12.8142  30.4891   H         1 RES1   0.0000
   124 H3DB    19.1109   4.8757  37.6142   H         1 RES1   0.0000
   125 H4N     20.5022  -1.7261  29.6484   H         1 RES1   0.0000
   126 H4O     26.5261   4.8484  29.0978   H         1 RES1   0.0000
   127 H4VB    17.2484   8.1022  23.0739   H         1 RES1   0.0000
   128 H4NA    26.5261   7.5516  32.9022   H         1 RES1   0.0000
   129 H4GB    16.6978  -1.7261  32.3516   H         1 RES1   0.0000
   130 H4IB    10.6739   4.8484  32.9022   H         1 RES1   0.0000
   131 H4DC    10.6739   7.5516  29.0978   H         1 RES1   0.0000
   132 H4KC    16.6978  14.1261  29.6484   H         1 RES1   0.0000
   133 H4CA    19.9516   8.1022  38.9261   H         1 RES1   0.0000
   134 H4JA    20.5022  14.1261  32.3516   H         1 RES1   0.0000
   135 H4DB    17.2484   4.2978  38.9261   H         1 RES1   0.0000
   136 H5N     19.0092  -1.7310  29.1574   H         1 RES1   0.0000
   137 H5O     26.5310   4.3574  30.5908   H         1 RES1   0.0000
   138 H5VB    16.7574   6.6092  23.0690   H         1 RES1   0.0000
   139 H5NA    26.5310   8.0426  31.4092   H         1 RES1   0.0000
   140 H5GB    18.1908  -1.7310  32.8426   H         1 RES1   0.0000
   141 H5IB    10.6690   4.3574  31.4092   H         1 RES1   0.0000
   142 H5DC    10.6690   8.0426  30.5908   H         1 RES1   0.0000
   143 H5KC    18.1908  14.1310  29.1574   H         1 RES1   0.0000
   144 H5CA    20.4426   6.6092  38.9310   H         1 RES1   0.0000
   145 H5JA    19.0092  14.1310  32.8426   H         1 RES1   0.0000
   146 H5DB    16.7574   5.7908  38.9310   H         1 RES1   0.0000
   147 H6N     19.4903  -3.7597  30.2659   H         1 RES1   0.0000
   148 H6O     28.5597   5.4659  30.1097   H         1 RES1   0.0000
   149 H6VB    17.8659   7.0903  21.0403   H         1 RES1   0.0000
   150 H6NA    28.5597   6.9341  31.8903   H         1 RES1   0.0000
   151 H6GB    17.7097  -3.7597  31.7341   H         1 RES1   0.0000
   152 H6IB     8.6403   5.4659  31.8903   H         1 RES1   0.0000
   153 H6DC     8.6403   6.9341  30.1097   H         1 RES1   0.0000
   154 H6KC    17.7097  16.1597  30.2659   H         1 RES1   0.0000
   155 H6CA    19.3341   7.0903  40.9597   H         1 RES1   0.0000
   156 H6JA    19.4903  16.1597  31.7341   H         1 RES1   0.0000
   157 H6DB    17.8659   5.3097  40.9597   H         1 RES1   0.0000
   158 H7N     19.8846  -2.9661  31.5630   H         1 RES1   0.0000
   159 H7O     27.7661   6.7630  29.7154   H         1 RES1   0.0000
   160 H7VB    19.1630   7.4846  21.8339   H         1 RES1   0.0000
   161 H7NA    27.7661   5.6370  32.2846   H         1 RES1   0.0000
   162 H7GB    17.3154  -2.9661  30.4370   H         1 RES1   0.0000
   163 H7IB     9.4339   6.7630  32.2846   H         1 RES1   0.0000
   164 H7DC     9.4339   5.6370  29.7154   H         1 RES1   0.0000
   165 H7KC    17.3154  15.3661  31.5630   H         1 RES1   0.0000
   166 H7CA    18.0370   7.4846  40.1661   H         1 RES1   0.0000
   167 H7JA    19.8846  15.3661  30.4370   H         1 RES1   0.0000
   168 H7DB    19.1630   4.9154  40.1661   H         1 RES1   0.0000
@<TRIPOS>BOND
     1     1     4    2
     2     2     3   ar
     3     3     4    1
     4     4     9    1
     5     5     1    1
     6     6     5    1
     7     7     6    1
     8     8     2    1
     9    10     5    1
    10    11     6    1
    11    12     6    1
    12    13     7    1
    13    14     7    1
    14    15    48    2
    15    16    49    2
    16    17    50    2
    17    18    51    2
    18    19    52    2
    19    20    53    2
    20    21    54    2
    21    22    55    2
    22    23    56    2
    23    24    57    2
    24    25    58    2
    25    26     3   ar
    26    27    37   ar
    27    28    39   ar
    28    29    40   ar
    29    30    41   ar
    30    31    41   ar
    31    32    43   ar
    32    33    39   ar
    33    34    40   ar
    34    35    45   ar
    35    36    42   ar
    36    37    26   ar
    37    38     2   ar
    38    39    50    1
    39    40    51    1
    40    41    52    1
    41    42    31   ar
    42    43    28   ar
    43    44    32   ar
    44    45    34   ar
    45    46    29   ar
    46    47    30   ar
    47    48    37    1
    48    49    38    1
    49    50   105    1
    50    51   106    1
    51    52   107    1
    52    53    42    1
    53    54    43    1
    54    55    44    1
    55    56    45    1
    56    57    46    1
    57    58    47    1
    58    59    15    1
    59    60    16    1
    60    61     5    1
    61    62    18    1
    62    63    19    1
    63    64    20    1
    64    65    21    1
    65    66    22    1
    66    67    23    1
    67    68    24    1
    68    69    25    1
    69    70    59    1
    70    71    60    1
    71    72    61    1
    72    73    62    1
    73    74    63    1
    74    75    64    1
    75    76    65    1
    76    77    66    1
    77    78    67    1
    78    79    68    1
    79    80    69    1
    80    81    70    1
    81    82    71    1
    82    83     7    1
    83    84    73    1
    84    85    74    1
    85    86    75    1
    86    87    76    1
    87    88    77    1
    88    89    78    1
    89    90    79    1
    90    91    80    1
    91    92    26    1
    92    93    27    1
    93    94    28    1
    94    95    29    1
    95    96    30    1
    96    97    31    1
    97    98    32    1
    98    99    33    1
    99   100    34    1
   100   101    35    1
   101   102    36    1
   102   103    48    1
   103   104    49    1
   104   108    53    1
   105   109    54    1
   106   110    55    1
   107   111    56    1
   108   112    57    1
   109   113    58    1
   110   114    59    1
   111   115    60    1
   112   116    61    1
   113   117    62    1
   114   118    63    1
   115   119    64    1
   116   120    65    1
   117   121    66    1
   118   122    67    1
   119   123    68    1
   120   124    69    1
   121   125    70    1
   122   126    71    1
   123   127    72    1
   124   128    73    1
   125   129    74    1
   126   130    75    1
   127   131    76    1
   128   132    77    1
   129   133    78    1
   130   134    79    1
   131   135    80    1
   132   136    70    1
   133   137    71    1
   134   138    72    1
   135   139    73    1
   136   140    74    1
   137   141    75    1
   138   142    76    1
   139   143    77    1
   140   144    78    1
   141   145    79    1
   142   146    80    1
   143   147    81    1
   144   148    82    1
   145   149    83    1
   146   150    84    1
   147   151    85    1
   148   152    86    1
   149   153    87    1
   150   154    88    1
   151   155    89    1
   152   156    90    1
   153   157    91    1
   154   158    81    1
   155   159    82    1
   156   160    83    1
   157   161    84    1
   158   162    85    1
   159   163    86    1
   160   164    87    1
   161   165    88    1
   162   166    89    1
   163   167    90    1
   164   168    91    1
   165    17    61    1
   166    27    38   ar
   167    33    44   ar
   168    35    46   ar
   169    36    47   ar
   170    59    63    1
   171    60    62    1
   172    64    65    1
   173    66    68    1
   174    67    69    1
   175    72    83    1
   176    81    85    1
   177    82    84    1
   178    86    87    1
   179    88    90    1
   180    89    91    1
@<TRIPOS>SUBSTRUCTURE
     1 RES1        1 GROUP             0 ****  ****    0  
@<TRIPOS>CRYSIN
   24.8000   24.8000   24.8000   90.0000   90.0000   90.0000   210     1
 

