####################################################################### 
# 
# This file contains crystal structure data downloaded from the 
# Cambridge Structural Database (CSD) hosted by the Cambridge 
# Crystallographic Data Centre (CCDC).
# 
# Full information about CCDC data access policies and citation 
# guidelines are available at http://www.ccdc.cam.ac.uk/access/V1 
# 
# Audit and citation data items may have been added by the CCDC. 
# Please retain this information to preserve the provenance of 
# this file and to allow appropriate attribution of the data. 
# 
#######################################################################
@<TRIPOS>MOLECULE
720848
   108   114     1     0     0
SMALL
NO_CHARGES
****
Generated from the CSD

@<TRIPOS>ATOM
     1 N1       6.1287   3.9058   8.2298   N.2       1 RES1   0.0000
     2 N2       3.6416   4.7360   9.5802   N.2       1 RES1   0.0000
     3 N3       4.8315   3.1857   0.1788   N.2       1 RES1   0.0000
     4 N4       7.4462  11.2809   4.7956   N.2       1 RES1   0.0000
     5 N5       8.8805   8.8589   5.2372   N.2       1 RES1   0.0000
     6 N6      -1.3706   4.3640   5.6605   N.2       1 RES1   0.0000
     7 N7      -0.9208   4.3007   2.7554   N.2       1 RES1   0.0000
     8 N8       2.4059  11.4555   0.9635   N.2       1 RES1   0.0000
     9 N9       7.2354   3.6439   1.8394   N.2       1 RES1   0.0000
    10 N10      0.0129   9.9390   8.2809   N.2       1 RES1   0.0000
    11 N11      2.1313   8.8917  -0.5438   N.2       1 RES1   0.0000
    12 N12      1.5706  12.2956   7.2773   N.2       1 RES1   0.0000
    13 C1       6.8871   5.2695   6.3685   C.ar      1 RES1   0.0000
    14 C2       1.8137   5.5314   8.1568   C.ar      1 RES1   0.0000
    15 C3       3.2421   4.9641   0.5073   C.ar      1 RES1   0.0000
    16 C4       5.0444  11.4773   4.9415   C.ar      1 RES1   0.0000
    17 C5       7.5428   6.4696   6.0583   C.ar      1 RES1   0.0000
    18 C6       1.7700   6.8078   8.7517   C.ar      1 RES1   0.0000
    19 C7       2.4242   4.1894   1.3212   C.ar      1 RES1   0.0000
    20 C8       4.8908  11.2264   3.5766   C.ar      1 RES1   0.0000
    21 C9       7.8214   6.7424   4.7189   C.ar      1 RES1   0.0000
    22 C10      0.8803   7.7243   8.2116   C.ar      1 RES1   0.0000
    23 C11      1.2046   4.7349   1.7117   C.ar      1 RES1   0.0000
    24 C12      3.6265  11.3355   3.0401   C.ar      1 RES1   0.0000
    25 C13      7.5255   5.8914   3.6569   C.ar      1 RES1   0.0000
    26 C14     -0.0538   7.4297   7.2298   C.ar      1 RES1   0.0000
    27 C15      0.7573   6.0332   1.4014   C.ar      1 RES1   0.0000
    28 C16      2.4578  11.6410   3.7445   C.ar      1 RES1   0.0000
    29 C17      6.9883   4.6149   4.0401   C.ar      1 RES1   0.0000
    30 C18     -0.0408   6.0878   6.7408   C.ar      1 RES1   0.0000
    31 C19      1.6551   6.7969   0.5839   C.ar      1 RES1   0.0000
    32 C20      2.6779  11.8483   5.1496   C.ar      1 RES1   0.0000
    33 C21      6.6101   4.3531   5.3576   C.ar      1 RES1   0.0000
    34 C22      0.8656   5.1495   7.2225   C.ar      1 RES1   0.0000
    35 C23      2.8474   6.2405   0.1095   C.ar      1 RES1   0.0000
    36 C24      3.9329  11.8264   5.7080   C.ar      1 RES1   0.0000
    37 C25      6.5852   5.0186   7.7882   C.2       1 RES1   0.0000
    38 C26      2.7460   4.5604   8.7043   C.2       1 RES1   0.0000
    39 C27      4.5402   4.4186   0.0657   C.2       1 RES1   0.0000
    40 C28      6.3933  11.4337   5.4963   C.2       1 RES1   0.0000
    41 C29      6.0149   3.7967   9.6897   C.3       1 RES1   0.0000
    42 C30      4.4907   3.5894   9.8831   C.3       1 RES1   0.0000
    43 C31      6.2117   2.8366  -0.1569   C.3       1 RES1   0.0000
    44 C32      8.7007  11.2155   5.5036   C.3       1 RES1   0.0000
    45 C33      8.4823   8.0298   4.3686   C.2       1 RES1   0.0000
    46 C34      0.8581   9.1098   8.7700   C.2       1 RES1   0.0000
    47 C35      0.2619   3.9058   2.4708   C.2       1 RES1   0.0000
    48 C36      3.4669  11.1937   1.5839   C.2       1 RES1   0.0000
    49 C37      9.5269  10.1027   4.8029   C.3       1 RES1   0.0000
    50 C38      0.0585  11.2700   8.9087   C.3       1 RES1   0.0000
    51 C39     -1.7767   3.3930   3.5073   C.3       1 RES1   0.0000
    52 C40      2.4332  11.2700  -0.4817   C.3       1 RES1   0.0000
    53 C41      6.7142   3.6003   3.0073   C.2       1 RES1   0.0000
    54 C42     -1.0393   5.6077   5.7810   C.2       1 RES1   0.0000
    55 C43      1.3066   8.1498   0.1168   C.2       1 RES1   0.0000
    56 C44      1.5035  12.0992   6.0145   C.2       1 RES1   0.0000
    57 C45      7.0890   2.4329   1.0328   C.3       1 RES1   0.0000
    58 C46     -2.4361   4.1349   4.6934   C.3       1 RES1   0.0000
    59 C47      1.5311  10.1463  -1.0255   C.3       1 RES1   0.0000
    60 C48      0.2204  12.4265   7.8722   C.3       1 RES1   0.0000
    61 H1       6.3287   4.6204  10.1386   H         1 RES1   0.0000
    62 H2       6.5266   3.0210  10.0364   H         1 RES1   0.0000
    63 H3       7.7792   7.0839   6.7444   H         1 RES1   0.0000
    64 H4       2.3260   7.0228   9.4926   H         1 RES1   0.0000
    65 H5       2.6870   3.3232   1.6022   H         1 RES1   0.0000
    66 H6       5.6330  10.9820   3.0365   H         1 RES1   0.0000
    67 H7       4.1984   2.8377   9.3101   H         1 RES1   0.0000
    68 H8       4.3239   3.3286  10.8210   H         1 RES1   0.0000
    69 H9       7.6693   6.1325   2.7481   H         1 RES1   0.0000
    70 H10     -0.6644   8.0865   6.9050   H         1 RES1   0.0000
    71 H11     -0.0721   6.3813   1.7080   H         1 RES1   0.0000
    72 H12      1.6033  11.7075   3.3357   H         1 RES1   0.0000
    73 H13      6.6294   3.6188  -0.6058   H         1 RES1   0.0000
    74 H14      6.1972   2.0947  -0.8066   H         1 RES1   0.0000
    75 H15      6.1485   3.5436   5.5656   H         1 RES1   0.0000
    76 H16      0.8329   4.2527   6.9160   H         1 RES1   0.0000
    77 H17      3.3911   6.7424  -0.4890   H         1 RES1   0.0000
    78 H18      4.0438  12.0490   6.6277   H         1 RES1   0.0000
    79 H19      8.5524  10.9962   6.4561   H         1 RES1   0.0000
    80 H20      6.7376   5.7147   8.4123   H         1 RES1   0.0000
    81 H21      2.6689   3.6756   8.3649   H         1 RES1   0.0000
    82 H22      5.1798   5.0110  -0.3175   H         1 RES1   0.0000
    83 H23      6.4911  11.5133   6.4379   H         1 RES1   0.0000
    84 H24      9.1768  12.0850   5.4488   H         1 RES1   0.0000
    85 H25      8.6079   8.2316   3.4525   H         1 RES1   0.0000
    86 H26      1.4549   9.3630   9.4634   H         1 RES1   0.0000
    87 H27      0.5399   3.0428   2.7627   H         1 RES1   0.0000
    88 H28      4.2159  10.8980   1.0803   H         1 RES1   0.0000
    89 H29      9.4796  10.1932   3.8175   H         1 RES1   0.0000
    90 H30     10.4694  10.1256   5.0875   H         1 RES1   0.0000
    91 H31      0.8131  11.2973   9.5510   H         1 RES1   0.0000
    92 H32     -0.7778  11.4119   9.4232   H         1 RES1   0.0000
    93 H33     -1.2385   2.6380   3.8467   H         1 RES1   0.0000
    94 H34     -2.4781   3.0319   2.9087   H         1 RES1   0.0000
    95 H35      3.3710  11.0900  -0.7555   H         1 RES1   0.0000
    96 H36      2.1657  12.1243  -0.9124   H         1 RES1   0.0000
    97 H37      6.1309   2.8824   3.2153   H         1 RES1   0.0000
    98 H38     -1.4663   6.2394   5.2189   H         1 RES1   0.0000
    99 H39      0.4414   8.4902   0.3066   H         1 RES1   0.0000
   100 H40      0.6452  12.0981   5.6058   H         1 RES1   0.0000
   101 H41      6.6587   1.7140   1.5584   H         1 RES1   0.0000
   102 H42      7.9745   2.1133   0.7190   H         1 RES1   0.0000
   103 H43     -2.8284   4.9946   4.3941   H         1 RES1   0.0000
   104 H44     -3.1558   3.5818   5.0912   H         1 RES1   0.0000
   105 H45      0.6116  10.2423  -0.6861   H         1 RES1   0.0000
   106 H46      1.5138  10.1594  -2.0146   H         1 RES1   0.0000
   107 H47     -0.4689  12.3599   7.1714   H         1 RES1   0.0000
   108 H48      0.1314  13.3047   8.3247   H         1 RES1   0.0000
@<TRIPOS>BOND
     1     1    37    2
     2     2    38    2
     3     3    39    2
     4     4    40    2
     5     5    45    2
     6     6    54    2
     7     7    47    2
     8     8    48    2
     9     9    53    2
    10    10    46    2
    11    11    55    2
    12    12    56    2
    13    13    17   ar
    14    14    18   ar
    15    15    19   ar
    16    16    20   ar
    17    17    21   ar
    18    18    22   ar
    19    19    23   ar
    20    20    24   ar
    21    21    25   ar
    22    22    26   ar
    23    23    27   ar
    24    24    28   ar
    25    25    29   ar
    26    26    30   ar
    27    27    31   ar
    28    28    32   ar
    29    29    33   ar
    30    30    34   ar
    31    31    35   ar
    32    32    36   ar
    33    33    13   ar
    34    34    14   ar
    35    35    15   ar
    36    36    16   ar
    37    37    13    1
    38    38    14    1
    39    39    15    1
    40    40    16    1
    41    41     1    1
    42    42     2    1
    43    43     3    1
    44    44     4    1
    45    45    21    1
    46    46    22    1
    47    47    23    1
    48    48    24    1
    49    49     5    1
    50    50    10    1
    51    51     7    1
    52    52     8    1
    53    53    29    1
    54    54    30    1
    55    55    31    1
    56    56    32    1
    57    57     9    1
    58    58     6    1
    59    59    11    1
    60    60    12    1
    61    61    41    1
    62    62    41    1
    63    63    17    1
    64    64    18    1
    65    65    19    1
    66    66    20    1
    67    67    42    1
    68    68    42    1
    69    69    25    1
    70    70    26    1
    71    71    27    1
    72    72    28    1
    73    73    43    1
    74    74    43    1
    75    75    33    1
    76    76    34    1
    77    77    35    1
    78    78    36    1
    79    79    44    1
    80    80    37    1
    81    81    38    1
    82    82    39    1
    83    83    40    1
    84    84    44    1
    85    85    45    1
    86    86    46    1
    87    87    47    1
    88    88    48    1
    89    89    49    1
    90    90    49    1
    91    91    50    1
    92    92    50    1
    93    93    51    1
    94    94    51    1
    95    95    52    1
    96    96    52    1
    97    97    53    1
    98    98    54    1
    99    99    55    1
   100   100    56    1
   101   101    57    1
   102   102    57    1
   103   103    58    1
   104   104    58    1
   105   105    59    1
   106   106    59    1
   107   107    60    1
   108   108    60    1
   109    41    42    1
   110    43    57    1
   111    44    49    1
   112    50    60    1
   113    51    58    1
   114    52    59    1
@<TRIPOS>SUBSTRUCTURE
     1 RES1        1 GROUP             0 ****  ****    0  
@<TRIPOS>CRYSIN
   12.8100   10.9100   36.8100   90.0000   97.4900   90.0000    14     1
 

