@<TRIPOS>MOLECULE
*****
 90 105 0 0 0
SMALL
USER_CHARGES

@<TRIPOS>ATOM
      1 C1          8.2890   14.0133   22.5426 C.3     1  RES11       0.1358
      2 H1          8.1276   14.9763   22.6239 H       1  RES11       0.0749
      3 C2          8.5897   13.6083   21.0893 C.3     1  RES11       0.1358
      4 H2          8.4948   14.3750   20.4873 H       1  RES11       0.0749
      5 C3          6.6982   12.4645   21.8349 C.2     1  RES11       0.3102
      6 C4         10.4848   13.1740   22.3826 C.2     1  RES11       0.3102
      7 C5          9.4485   10.7766   18.7811 C.3     1  RES11       0.1358
      8 H3          9.4892   11.2063   17.9007 H       1  RES11       0.0749
      9 C6          9.7430    9.2649   18.7016 C.3     1  RES11       0.1358
     10 H4          9.9020    8.9852   17.7759 H       1  RES11       0.0749
     11 C7          7.6002    9.5648   19.5302 C.2     1  RES11       0.3102
     12 C8         11.3781   10.2928   20.0183 C.2     1  RES11       0.3102
     13 C9         10.0782    6.0777   20.7124 C.3     1  RES11       0.1358
     14 H5         10.3197    5.3729   20.0725 H       1  RES11       0.0749
     15 C10         9.9821    5.5290   22.1548 C.3     1  RES11       0.1358
     16 H6         10.1484    4.5629   22.1820 H       1  RES11       0.0749
     17 C11         7.9341    6.3961   21.5339 C.2     1  RES11       0.3102
     18 C12        11.6455    7.1751   22.0735 C.2     1  RES11       0.3102
     19 C13         9.2600    6.4641   25.7583 C.3     1  RES11       0.1358
     20 H7          9.3955    5.6279   26.2518 H       1  RES11       0.0749
     21 C14         8.8743    7.6188   26.7154 C.3     1  RES11       0.1358
     22 H8          8.8250    7.3220   27.6481 H       1  RES11       0.0749
     23 C15         7.1578    7.2849   25.1515 C.2     1  RES11       0.3102
     24 C16        10.9099    8.1010   25.6634 C.2     1  RES11       0.3102
     25 C17         8.1596   11.3083   26.8990 C.3     1  RES11       0.1358
     26 H9          7.9132   11.4521   27.8379 H       1  RES11       0.0749
     27 C18         8.0278   12.6268   26.0647 C.3     1  RES11       0.1358
     28 H10         7.8048   13.3935   26.6314 H       1  RES11       0.0749
     29 C19         6.4777   11.0827   25.2914 C.2     1  RES11       0.3102
     30 C20        10.2297   11.7767   25.9535 C.2     1  RES11       0.3102
     31 C21         7.3316   11.9900   19.5465 C.3     1  RES11       0.0902
     32 H11         7.5213   12.6284   18.8415 H       1  RES11       0.0676
     33 H12         6.3927   11.7550   19.4868 H       1  RES11       0.0676
     34 C22        10.7054   12.6531   19.9993 C.3     1  RES11       0.0902
     35 H13        11.6480   12.7752   20.1918 H       1  RES11       0.0676
     36 H14        10.4934   13.1910   19.2211 H       1  RES11       0.0676
     37 C23         8.3161    7.2184   19.2482 C.3     1  RES11       0.0902
     38 H15         8.7720    6.8088   18.4972 H       1  RES11       0.0676
     39 H16         7.3649    7.0654   19.1343 H       1  RES11       0.0676
     40 C24        11.6529    7.8753   19.6902 C.3     1  RES11       0.0902
     41 H17        12.5931    8.0577   19.8474 H       1  RES11       0.0676
     42 H18        11.5839    7.3513   18.8768 H       1  RES11       0.0676
     43 C25         8.0044    5.4208   23.7817 C.3     1  RES11       0.0902
     44 H19         8.4048    4.5815   24.0583 H       1  RES11       0.0676
     45 H20         7.0642    5.2538   23.6109 H       1  RES11       0.0676
     46 C26        11.3104    6.1102   24.2887 C.3     1  RES11       0.0902
     47 H21        11.1982    5.1781   24.5355 H       1  RES11       0.0676
     48 H22        12.2394    6.3451   24.4378 H       1  RES11       0.0676
     49 C27         6.8289    9.1165   26.7496 C.3     1  RES11       0.0902
     50 H23         6.9299    9.1165   27.7132 H       1  RES11       0.0676
     51 H24         5.8911    8.9728   26.5500 H       1  RES11       0.0676
     52 C28        10.1496    9.7425   27.3174 C.3     1  RES11       0.0902
     53 H25        11.1046    9.8878   27.4095 H       1  RES11       0.0676
     54 H26         9.7861    9.5849   28.2013 H       1  RES11       0.0676
     55 C29         6.4518   13.2729   24.1721 C.3     1  RES11       0.0902
     56 H27         6.5109   14.1663   24.5463 H       1  RES11       0.0676
     57 H28         5.5141   13.0766   24.0230 H       1  RES11       0.0676
     58 C30         9.8034   13.8325   24.6412 C.3     1  RES11       0.0902
     59 H29         9.3684   14.6532   24.9205 H       1  RES11       0.0676
     60 H30        10.7596   13.9546   24.7497 H       1  RES11       0.0676
     61 N1          7.1443   13.2528   22.8972 N.am    1  RES11      -0.2471
     62 N2          7.5743   12.6145   20.8173 N.am    1  RES11      -0.2471
     63 N3          9.5150   13.6022   23.2475 N.am    1  RES11      -0.2471
     64 N4          9.9512   13.1385   21.1061 N.am    1  RES11      -0.2471
     65 N5          8.1301   10.7967   19.3290 N.am    1  RES11      -0.2471
     66 N6          8.5687    8.6497   19.2282 N.am    1  RES11      -0.2471
     67 N7         10.4774   11.2697   19.6780 N.am    1  RES11      -0.2471
     68 N8         10.9543    9.1258   19.5055 N.am    1  RES11      -0.2471
     69 N9          8.7535    6.5739   20.4724 N.am    1  RES11      -0.2471
     70 N10         8.6291    5.8427   22.5450 N.am    1  RES11      -0.2471
     71 N11        11.1243    7.0870   20.8160 N.am    1  RES11      -0.2471
     72 N12        11.0060    6.2647   22.8717 N.am    1  RES11      -0.2471
     73 N13         8.1140    6.3698   24.8766 N.am    1  RES11      -0.2471
     74 N14         7.5793    8.0516   26.2127 N.am    1  RES11      -0.2471
     75 N15        10.4934    6.9077   25.1360 N.am    1  RES11      -0.2471
     76 N16         9.9352    8.5725   26.5088 N.am    1  RES11      -0.2471
     77 N17         7.2269   10.4149   26.2331 N.am    1  RES11      -0.2471
     78 N18         6.9743   12.3316   25.1366 N.am    1  RES11      -0.2471
     79 N19         9.5471   10.9374   26.7688 N.am    1  RES11      -0.2471
     80 N20         9.3635   12.7458   25.5029 N.am    1  RES11      -0.2471
     81 O1          5.7125   11.7674   21.8474 O.2     1  RES11      -0.2522
     82 O2         11.6468   12.8803   22.6611 O.2     1  RES11      -0.2522
     83 O3          6.4543    9.3175   19.9071 O.2     1  RES11      -0.2522
     84 O4         12.4120   10.4876   20.6568 O.2     1  RES11      -0.2522
     85 O5          6.7229    6.6821   21.5640 O.2     1  RES11      -0.2522
     86 O6         12.5808    7.8831   22.4027 O.2     1  RES11      -0.2522
     87 O7          6.0784    7.3884   24.5935 O.2     1  RES11      -0.2522
     88 O8         11.9659    8.6358   25.4457 O.2     1  RES11      -0.2522
     89 O9          5.5116   10.6251   24.6906 O.2     1  RES11      -0.2522
     90 O10        11.4237   11.7504   25.7092 O.2     1  RES11      -0.2522
@<TRIPOS>BOND
     1     1     2    1
     2     3     1    1
     3     4     3    1
     4     5    61   am
     5     6    63   am
     6     7     8    1
     7     9     7    1
     8    10     9    1
     9    11    65   am
    10    12    67   am
    11    13    14    1
    12    15    13    1
    13    16    15    1
    14    17    69   am
    15    18    71   am
    16    19    20    1
    17    21    19    1
    18    22    21    1
    19    23    73   am
    20    24    75   am
    21    25    26    1
    22    27    25    1
    23    28    27    1
    24    29    77   am
    25    30    79   am
    26    31    32    1
    27    33    31    1
    28    34    35    1
    29    36    34    1
    30    37    38    1
    31    39    37    1
    32    40    41    1
    33    42    40    1
    34    43    44    1
    35    45    43    1
    36    46    47    1
    37    48    46    1
    38    49    50    1
    39    51    49    1
    40    52    53    1
    41    54    52    1
    42    55    56    1
    43    57    55    1
    44    58    59    1
    45    60    58    1
    46    61     1    1
    47    62     3    1
    48    63     1    1
    49    64     3    1
    50    65     7    1
    51    66     9    1
    52    67     7    1
    53    68     9    1
    54    69    13    1
    55    70    15    1
    56    71    13    1
    57    72    15    1
    58    73    19    1
    59    74    21    1
    60    75    19    1
    61    76    21    1
    62    77    25    1
    63    78    27    1
    64    79    25    1
    65    80    27    1
    66    81     5    2
    67    82     6    2
    68    83    11    2
    69    84    12    2
    70    85    17    2
    71    86    18    2
    72    87    23    2
    73    88    24    2
    74    89    29    2
    75    90    30    2
    76     5    62   am
    77     6    64   am
    78    11    66   am
    79    12    68   am
    80    17    70   am
    81    18    72   am
    82    23    74   am
    83    24    76   am
    84    29    78   am
    85    30    80   am
    86    31    62    1
    87    31    65    1
    88    34    64    1
    89    34    67    1
    90    37    66    1
    91    37    69    1
    92    40    68    1
    93    40    71    1
    94    43    70    1
    95    43    73    1
    96    46    72    1
    97    46    75    1
    98    49    74    1
    99    49    77    1
   100    52    76    1
   101    52    79    1
   102    55    61    1
   103    55    78    1
   104    58    63    1
   105    58    80    1
