@<TRIPOS>MOLECULE
*****
 126 147 0 0 0
SMALL
USER_CHARGES

@<TRIPOS>ATOM
      1 O1         -5.7995   20.3684    1.6073 O.2     1  RES11      -0.2522
      2 O2         -5.3839   24.5935   -2.7477 O.2     1  RES11      -0.2522
      3 O3         -2.7736   21.8439    3.3754 O.2     1  RES11      -0.2522
      4 O4         -2.9480   26.0792   -0.9200 O.2     1  RES11      -0.2522
      5 O5         -2.4148   24.0954    6.1046 O.2     1  RES11      -0.2522
      6 O6         -3.1956   28.4959    2.0116 O.2     1  RES11      -0.2522
      7 O7         -5.4684   25.2330    7.3249 O.2     1  RES11      -0.2522
      8 O8         -5.8743   30.1565    3.8672 O.2     1  RES11      -0.2522
      9 O9         -9.3418   24.5602    6.9571 O.2     1  RES11      -0.2522
     10 O10        -9.4467   29.4430    3.2894 O.2     1  RES11      -0.2522
     11 O11       -10.9112   22.6783    4.3778 O.2     1  RES11      -0.2522
     12 O12       -10.7993   27.4986    0.8987 O.2     1  RES11      -0.2522
     13 O13        -9.5160   20.4929    1.9986 O.2     1  RES11      -0.2522
     14 O14        -8.8936   25.3903   -1.6167 O.2     1  RES11      -0.2522
     15 N1         -4.4259   21.2482   -0.0463 N.am    1  RES11      -0.2471
     16 N2         -6.5640   20.7854   -0.5254 N.am    1  RES11      -0.2471
     17 N3         -4.2340   22.8129   -1.8960 N.am    1  RES11      -0.2471
     18 N4         -6.4254   22.6494   -2.1211 N.am    1  RES11      -0.2471
     19 N5         -1.4513   23.5541    2.5190 N.am    1  RES11      -0.2471
     20 N6         -2.5103   22.2023    1.1166 N.am    1  RES11      -0.2471
     21 N7         -1.6738   25.2784    0.8456 N.am    1  RES11      -0.2471
     22 N8         -2.4132   23.8626   -0.6689 N.am    1  RES11      -0.2471
     23 N9         -2.3627   26.3700    5.8492 N.am    1  RES11      -0.2471
     24 N10        -1.3552   25.1253    4.3615 N.am    1  RES11      -0.2471
     25 N11        -2.6251   28.1753    4.2245 N.am    1  RES11      -0.2471
     26 N12        -1.7323   26.8499    2.6787 N.am    1  RES11      -0.2471
     27 N13        -6.5641   27.2487    7.0691 N.am    1  RES11      -0.2471
     28 N14        -4.3553   27.2069    6.9473 N.am    1  RES11      -0.2471
     29 N15        -6.6877   29.3704    5.8766 N.am    1  RES11      -0.2471
     30 N16        -4.5482   29.0515    5.3910 N.am    1  RES11      -0.2471
     31 N17       -10.7954   26.0570    5.9659 N.am    1  RES11      -0.2471
     32 N18        -8.9457   26.8364    6.9224 N.am    1  RES11      -0.2471
     33 N19       -10.7975   27.9661    4.4522 N.am    1  RES11      -0.2471
     34 N20        -9.0014   28.7873    5.4611 N.am    1  RES11      -0.2471
     35 N21       -11.9192   23.3982    2.4319 N.am    1  RES11      -0.2471
     36 N22       -11.8060   24.7980    4.1660 N.am    1  RES11      -0.2471
     37 N23       -11.6415   25.3572    1.0421 N.am    1  RES11      -0.2471
     38 N24       -11.9982   26.7694    2.7239 N.am    1  RES11      -0.2471
     39 N25        -8.8996   21.2246   -0.1008 N.am    1  RES11      -0.2471
     40 N26       -10.7340   22.0332    0.8091 N.am    1  RES11      -0.2471
     41 N27        -8.7539   23.0790   -1.6734 N.am    1  RES11      -0.2471
     42 N28       -10.4393   24.0278   -0.5554 N.am    1  RES11      -0.2471
     43 C1         -5.6321   20.7717    0.4481 C.2     1  RES11       0.3102
     44 C2         -4.4853   21.4667   -1.4533 C.3     1  RES11       0.1358
     45 H1         -3.9283   20.8048   -1.9513 H       1  RES11       0.0749
     46 C3         -6.0094   21.2793   -1.7591 C.3     1  RES11       0.1358
     47 H2         -6.1580   20.6393   -2.5114 H       1  RES11       0.0749
     48 C4         -5.3320   23.4650   -2.2888 C.2     1  RES11       0.3102
     49 C5         -3.1656   21.0207    0.6685 C.3     1  RES11       0.0902
     50 H3         -3.3454   20.4458    1.4526 H       1  RES11       0.0676
     51 H4         -2.5455   20.5243    0.0723 H       1  RES11       0.0676
     52 C6         -2.9114   23.4131   -1.9524 C.3     1  RES11       0.0902
     53 H5         -2.2751   22.7484   -2.3235 H       1  RES11       0.0676
     54 H6         -2.9357   24.1843   -2.5728 H       1  RES11       0.0676
     55 C7         -2.2686   22.4791    2.4391 C.2     1  RES11       0.3102
     56 C8         -1.0639   24.0217    1.2470 C.3     1  RES11       0.1358
     57 H7         -0.0696   24.0553    1.1599 H       1  RES11       0.0749
     58 C9         -1.6921   23.0120    0.2345 C.3     1  RES11       0.1358
     59 H8         -0.9975   22.4707   -0.2349 H       1  RES11       0.0749
     60 C10        -2.4224   25.1632   -0.3165 C.2     1  RES11       0.3102
     61 C11        -0.7902   23.9179    3.7497 C.3     1  RES11       0.0902
     62 H9          0.1700   24.0665    3.5665 H       1  RES11       0.0676
     63 H10        -0.8647   23.1663    4.3904 H       1  RES11       0.0676
     64 C12        -1.2290   26.5458    1.3583 C.3     1  RES11       0.0902
     65 H11        -1.5108   27.2582    0.7335 H       1  RES11       0.0676
     66 H12        -0.2380   26.5458    1.3876 H       1  RES11       0.0676
     67 C13        -2.1050   25.1183    5.4990 C.2     1  RES11       0.3102
     68 C14        -1.7203   27.3283    4.9823 C.3     1  RES11       0.1358
     69 H13        -1.0396   27.8668    5.4745 H       1  RES11       0.0749
     70 C15        -1.0752   26.4589    3.9221 C.3     1  RES11       0.1358
     71 H14        -0.0907   26.6216    3.8737 H       1  RES11       0.0749
     72 C16        -2.5937   27.9005    2.8818 C.2     1  RES11       0.3102
     73 C17        -2.9972   26.7085    7.0976 C.3     1  RES11       0.0902
     74 H15        -2.4532   27.3984    7.5558 H       1  RES11       0.0676
     75 H16        -3.0134   25.9064    7.6751 H       1  RES11       0.0676
     76 C18        -3.2874   29.3364    4.7669 C.3     1  RES11       0.0902
     77 H17        -2.6896   29.7599    5.4347 H       1  RES11       0.0676
     78 H18        -3.4344   29.9899    4.0363 H       1  RES11       0.0676
     79 C19        -5.4601   26.4365    7.1229 C.2     1  RES11       0.3102
     80 C20        -6.1710   28.6353    7.0286 C.3     1  RES11       0.1358
     81 H19        -6.3782   29.1037    7.8883 H       1  RES11       0.0749
     82 C21        -4.6758   28.5915    6.7565 C.3     1  RES11       0.1358
     83 H20        -4.1696   29.1766    7.3896 H       1  RES11       0.0749
     84 C22        -5.7288   29.5701    4.9321 C.2     1  RES11       0.3102
     85 C23        -7.7906   26.8263    7.7611 C.3     1  RES11       0.0902
     86 H21        -7.6607   25.9120    8.1159 H       1  RES11       0.0676
     87 H22        -7.9473   27.4293    8.5315 H       1  RES11       0.0676
     88 C24        -8.0333   29.8337    5.7559 C.3     1  RES11       0.0902
     89 H23        -8.0736   30.5144    5.0372 H       1  RES11       0.0676
     90 H24        -8.2922   30.2760    6.6019 H       1  RES11       0.0676
     91 C25        -9.6616   25.6930    6.6319 C.2     1  RES11       0.3102
     92 C26       -10.9186   27.4854    5.8116 C.3     1  RES11       0.1358
     93 H25       -11.7477   27.8304    6.2514 H       1  RES11       0.0749
     94 C27        -9.6459   28.0323    6.4949 C.3     1  RES11       0.1358
     95 H26        -9.8775   28.6129    7.2740 H       1  RES11       0.0749
     96 C28        -9.7233   28.7912    4.2824 C.2     1  RES11       0.3102
     97 C29       -11.8050   25.1188    5.5709 C.3     1  RES11       0.0902
     98 H27       -12.6917   25.4885    5.8105 H       1  RES11       0.0676
     99 H28       -11.6781   24.2825    6.0851 H       1  RES11       0.0676
    100 C30       -11.9109   27.9566    3.5058 C.3     1  RES11       0.0902
    101 H29       -12.7565   28.0688    4.0074 H       1  RES11       0.0676
    102 H30       -11.8189   28.7335    2.8980 H       1  RES11       0.0676
    103 C31       -11.4789   23.5387    3.7244 C.2     1  RES11       0.3102
    104 C32       -12.5172   24.6101    1.9311 C.3     1  RES11       0.1358
    105 H31       -13.4155   24.4480    1.5249 H       1  RES11       0.0749
    106 C33       -12.5967   25.5112    3.1777 C.3     1  RES11       0.1358
    107 H32       -13.5402   25.6399    3.4834 H       1  RES11       0.0749
    108 C34       -11.4115   26.6373    1.4945 C.2     1  RES11       0.3102
    109 C35       -11.8682   22.1510    1.7142 C.3     1  RES11       0.0902
    110 H33       -12.7047   22.0500    1.1925 H       1  RES11       0.0676
    111 H34       -11.8319   21.4078    2.3668 H       1  RES11       0.0676
    112 C36       -11.4441   25.0221   -0.3498 C.3     1  RES11       0.0902
    113 H35       -12.2982   24.6948   -0.7263 H       1  RES11       0.0676
    114 H36       -11.1923   25.8419   -0.8456 H       1  RES11       0.0676
    115 C37        -9.6880   21.1806    1.0002 C.2     1  RES11       0.3102
    116 C38        -9.5251   21.9636   -1.2011 C.3     1  RES11       0.1358
    117 H37        -9.7900   21.3545   -1.9477 H       1  RES11       0.0749
    118 C39       -10.7428   22.5941   -0.5297 C.3     1  RES11       0.1358
    119 H38       -11.5890   22.3838   -1.0190 H       1  RES11       0.0749
    120 C40        -9.3073   24.2699   -1.3225 C.2     1  RES11       0.3102
    121 C41        -7.8539   20.2441   -0.3646 C.3     1  RES11       0.0902
    122 H39        -7.8323   19.5960    0.3830 H       1  RES11       0.0676
    123 H40        -8.0898   19.7446   -1.1852 H       1  RES11       0.0676
    124 C42        -7.7279   22.9601   -2.6801 C.3     1  RES11       0.0902
    125 H41        -7.6688   23.8113   -3.1835 H       1  RES11       0.0676
    126 H42        -7.9845   22.2491   -3.3172 H       1  RES11       0.0676
@<TRIPOS>BOND
     1     1    43    2
     2     2    48    2
     3     3    55    2
     4     4    60    2
     5     5    67    2
     6     6    72    2
     7     7    79    2
     8     8    84    2
     9     9    91    2
    10    10    96    2
    11    11   103    2
    12    12   108    2
    13    13   115    2
    14    14   120    2
    15    15    43   am
    16    16    43   am
    17    17    44    1
    18    18    46    1
    19    19    55   am
    20    20    49    1
    21    21    56    1
    22    22    52    1
    23    23    67   am
    24    24    61    1
    25    25    68    1
    26    26    64    1
    27    27    79   am
    28    28    73    1
    29    29    80    1
    30    30    76    1
    31    31    91   am
    32    32    85    1
    33    33    92    1
    34    34    88    1
    35    35   103   am
    36    36    97    1
    37    37   104    1
    38    38   100    1
    39    39   115   am
    40    40   109    1
    41    41   116    1
    42    42   112    1
    43    44    15    1
    44    45    44    1
    45    46    16    1
    46    47    46    1
    47    48    17   am
    48    49    15    1
    49    50    49    1
    50    51    49    1
    51    52    17    1
    52    53    52    1
    53    54    52    1
    54    55    20   am
    55    56    19    1
    56    57    56    1
    57    58    20    1
    58    59    58    1
    59    60    21   am
    60    61    19    1
    61    62    61    1
    62    63    61    1
    63    64    21    1
    64    65    64    1
    65    66    64    1
    66    67    24   am
    67    68    23    1
    68    69    68    1
    69    70    24    1
    70    71    70    1
    71    72    25   am
    72    73    23    1
    73    74    73    1
    74    75    73    1
    75    76    25    1
    76    77    76    1
    77    78    76    1
    78    79    28   am
    79    80    27    1
    80    81    80    1
    81    82    28    1
    82    83    82    1
    83    84    29   am
    84    85    27    1
    85    86    85    1
    86    87    85    1
    87    88    29    1
    88    89    88    1
    89    90    88    1
    90    91    32   am
    91    92    31    1
    92    93    92    1
    93    94    32    1
    94    95    94    1
    95    96    33   am
    96    97    31    1
    97    98    97    1
    98    99    97    1
    99   100    33    1
   100   101   100    1
   101   102   100    1
   102   103    36   am
   103   104    35    1
   104   105   104    1
   105   106    36    1
   106   107   106    1
   107   108    37   am
   108   109    35    1
   109   110   109    1
   110   111   109    1
   111   112    37    1
   112   113   112    1
   113   114   112    1
   114   115    40   am
   115   116    39    1
   116   117   116    1
   117   118    40    1
   118   119   118    1
   119   120    41   am
   120   121    16    1
   121   122   121    1
   122   123   121    1
   123   124    18    1
   124   125   124    1
   125   126   124    1
   126    18    48   am
   127    22    58    1
   128    22    60   am
   129    26    70    1
   130    26    72   am
   131    30    82    1
   132    30    84   am
   133    34    94    1
   134    34    96   am
   135    38   106    1
   136    38   108   am
   137    39   121    1
   138    41   124    1
   139    42   118    1
   140    42   120   am
   141    44    46    1
   142    56    58    1
   143    68    70    1
   144    80    82    1
   145    92    94    1
   146   104   106    1
   147   116   118    1
