@<TRIPOS>MOLECULE
*****
 120 129 0 0 0
SMALL
GASTEIGER

@<TRIPOS>ATOM
      1 C1          2.3343    7.9945   12.9042 C.3     2  RES22      -0.0016
      2 H1          2.1704    8.9382   13.0567 H       2  RES22       0.0362
      3 H2          2.9286    7.6852   13.6055 H       2  RES22       0.0362
      4 C2          3.0399    7.8370   11.5706 C.ar    2  RES22      -0.0359
      5 C3          2.7462    8.7624   10.5630 C.ar    2  RES22      -0.0125
      6 H3          2.1212    9.4288   10.7382 H       2  RES22       0.0658
      7 C4          3.3491    8.7293    9.3152 C.ar    2  RES22       0.1618
      8 C5          4.2610    7.7024    9.0331 C.ar    2  RES22       0.1623
      9 C6          4.5576    6.7929   10.0347 C.ar    2  RES22      -0.0125
     10 H4          5.1672    6.1151    9.8505 H       2  RES22       0.0658
     11 C7          3.9849    6.8465   11.3116 C.ar    2  RES22      -0.0359
     12 C8          4.4613    5.8321   12.3457 C.3     2  RES22      -0.0016
     13 H5          5.4048    5.6564   12.1967 H       2  RES22       0.0362
     14 H6          4.3718    6.2235   13.2280 H       2  RES22       0.0362
     15 C9          3.7137    4.5130   12.3227 C.ar    2  RES22      -0.0359
     16 C10         4.1541    3.5317   11.4326 C.ar    2  RES22      -0.0125
     17 H7          4.8938    3.7085   10.8965 H       2  RES22       0.0658
     18 C11         3.5281    2.3118   11.3234 C.ar    2  RES22       0.1618
     19 C12         2.3991    2.0414   12.1157 C.ar    2  RES22       0.1623
     20 C13         1.9770    2.9931   13.0129 C.ar    2  RES22      -0.0125
     21 H8          1.2446    2.8094   13.5539 H       2  RES22       0.0658
     22 C14         2.6205    4.2369   13.1353 C.ar    2  RES22      -0.0359
     23 C15         2.0731    5.1977   14.1745 C.3     2  RES22      -0.0016
     24 H9          2.7785    5.8070   14.4452 H       2  RES22       0.0362
     25 H10         1.7987    4.6956   14.9572 H       2  RES22       0.0362
     26 C16         0.8853    6.0078   13.6609 C.ar    2  RES22      -0.0359
     27 C17        -0.3948    5.4510   13.7931 C.ar    2  RES22      -0.0125
     28 H11        -0.4873    4.6305   14.2224 H       2  RES22       0.0658
     29 C18        -1.5212    6.0774   13.3101 C.ar    2  RES22       0.1618
     30 C19        -1.4016    7.3075   12.6604 C.ar    2  RES22       0.1623
     31 C20        -0.1414    7.8690   12.5311 C.ar    2  RES22      -0.0125
     32 H12        -0.0577    8.6871   12.0972 H       2  RES22       0.0658
     33 C21         1.0101    7.2482   13.0298 C.ar    2  RES22      -0.0359
     34 C22        -0.7564    2.3997    5.9199 C.3     2  RES22      -0.0016
     35 H13        -0.4113    1.5188    5.7089 H       2  RES22       0.0362
     36 H14        -1.4560    2.6005    5.2779 H       2  RES22       0.0362
     37 C23         0.3623    3.4084    5.7420 C.ar    2  RES22      -0.0359
     38 C24         1.6673    3.0113    6.0527 C.ar    2  RES22      -0.0125
     39 H15         1.8243    2.1259    6.2871 H       2  RES22       0.0658
     40 C25         2.7255    3.8923    6.0228 C.ar    2  RES22       0.1618
     41 C26         2.4894    5.2262    5.6926 C.ar    2  RES22       0.1623
     42 C27         1.2219    5.6073    5.2879 C.ar    2  RES22      -0.0125
     43 H16         1.0810    6.4825    5.0054 H       2  RES22       0.0658
     44 C28         0.1507    4.7127    5.2930 C.ar    2  RES22      -0.0359
     45 C29        -1.2136    5.2273    4.8483 C.3     2  RES22      -0.0016
     46 H17        -1.1063    5.8218    4.0901 H       2  RES22       0.0362
     47 H18        -1.7677    4.4811    4.5708 H       2  RES22       0.0362
     48 C30        -1.8878    5.9668    5.9816 C.ar    2  RES22      -0.0359
     49 C31        -1.5037    7.2961    6.1499 C.ar    2  RES22      -0.0125
     50 H19        -0.9684    7.6944    5.5008 H       2  RES22       0.0658
     51 C32        -1.8883    8.0413    7.2436 C.ar    2  RES22       0.1618
     52 C33        -2.6505    7.4228    8.2397 C.ar    2  RES22       0.1623
     53 C34        -3.0909    6.1265    8.0395 C.ar    2  RES22      -0.0125
     54 H20        -3.6386    5.7374    8.6811 H       2  RES22       0.0658
     55 C35        -2.7431    5.3745    6.9061 C.ar    2  RES22      -0.0359
     56 C36        -3.3009    3.9687    6.7374 C.3     2  RES22      -0.0016
     57 H21        -4.2477    3.9790    6.9445 H       2  RES22       0.0362
     58 H22        -3.2027    3.7006    5.8101 H       2  RES22       0.0362
     59 C37        -2.6138    2.9406    7.6233 C.ar    2  RES22      -0.0359
     60 C38        -3.2362    2.6165    8.8292 C.ar    2  RES22      -0.0125
     61 H23        -4.0750    2.9714    9.0181 H       2  RES22       0.0658
     62 C39        -2.6319    1.7733    9.7539 C.ar    2  RES22       0.1618
     63 C40        -1.3253    1.3625    9.5397 C.ar    2  RES22       0.1623
     64 C41        -0.7356    1.6295    8.3174 C.ar    2  RES22      -0.0125
     65 H24         0.1242    1.3145    8.1600 H       2  RES22       0.0658
     66 C42        -1.3792    2.3518    7.3112 C.ar    2  RES22      -0.0359
     67 C43         4.5547    8.0572    6.6075 C.3     2  RES22       0.1237
     68 H25         5.2364    7.8872    5.9390 H       2  RES22       0.0731
     69 H26         4.4318    9.0169    6.6683 H       2  RES22       0.0731
     70 C44         3.2690    7.4308    6.1597 C.3     2  RES22       0.1237
     71 H27         2.6249    7.4296    6.8856 H       2  RES22       0.0731
     72 H28         2.8948    7.9294    5.4160 H       2  RES22       0.0731
     73 C45         0.5743    0.5454   12.5272 C.3     2  RES22       0.1237
     74 H29         0.5716    0.8604   13.4453 H       2  RES22       0.0731
     75 H30         0.4070   -0.4097   12.5411 H       2  RES22       0.0731
     76 C46        -0.5269    1.2221   11.7755 C.3     2  RES22       0.1237
     77 H31        -1.3654    1.1240   12.2538 H       2  RES22       0.0731
     78 H32        -0.3359    2.1681   11.6847 H       2  RES22       0.0731
     79 C47        -2.5390    9.0831   11.4788 C.3     2  RES22       0.1237
     80 H33        -1.9446    9.7141   11.9149 H       2  RES22       0.0731
     81 H34        -3.4247    9.4802   11.4564 H       2  RES22       0.0731
     82 C48        -2.0712    8.8743   10.0745 C.3     2  RES22       0.1237
     83 H35        -1.9673    9.7278    9.6259 H       2  RES22       0.0731
     84 H36        -1.2134    8.4212   10.0734 H       2  RES22       0.0731
     85 C49         2.1761   10.6852    8.6010 C.3     2  RES22       0.0790
     86 H37         1.3199   10.2915    8.7787 H       2  RES22       0.0660
     87 H38         2.1095   11.2637    7.8377 H       2  RES22       0.0660
     88 H39         2.4602   11.1941    9.3644 H       2  RES22       0.0660
     89 C50         5.2894    1.1787   10.1967 C.3     2  RES22       0.0790
     90 H40         5.7894    1.7801   10.7566 H       2  RES22       0.0660
     91 H41         5.4421    1.4013    9.2741 H       2  RES22       0.0660
     92 H42         5.5752    0.2784   10.3606 H       2  RES22       0.0660
     93 C51        -3.2994    4.8645   12.3685 C.3     2  RES22       0.0790
     94 H43        -3.2984    5.4704   11.6240 H       2  RES22       0.0660
     95 H44        -4.1977    4.5735   12.5429 H       2  RES22       0.0660
     96 H45        -2.7527    4.1034   12.1617 H       2  RES22       0.0660
     97 C52         4.4619    3.7006    7.5817 C.3     2  RES22       0.0790
     98 H46         4.4561    4.6465    7.7438 H       2  RES22       0.0660
     99 H47         5.3547    3.3628    7.6867 H       2  RES22       0.0660
    100 H48         3.8784    3.2647    8.2079 H       2  RES22       0.0660
    101 C53        -0.5863    9.9104    6.5278 C.3     2  RES22       0.0790
    102 H49         0.2059    9.3706    6.5781 H       2  RES22       0.0660
    103 H50        -0.3805   10.8073    6.7972 H       2  RES22       0.0660
    104 H51        -0.9148    9.9138    5.6260 H       2  RES22       0.0660
    105 C54        -4.6647    1.4789   10.9501 C.3     2  RES22       0.0790
    106 H52        -4.8665    2.4088   11.0807 H       2  RES22       0.0660
    107 H53        -5.0147    0.9699   11.6847 H       2  RES22       0.0660
    108 H54        -5.0643    1.1765   10.1305 H       2  RES22       0.0660
    109 O1          5.0133    7.5614    7.8808 O.3     2  RES22      -0.4849
    110 O2          3.5628    6.0860    5.7562 O.3     2  RES22      -0.4849
    111 O3          1.8640    0.7854   11.9556 O.3     2  RES22      -0.4849
    112 O4         -0.6272    0.6074   10.4671 O.3     2  RES22      -0.4849
    113 O5         -2.5912    7.8860   12.2610 O.3     2  RES22      -0.4849
    114 O6         -3.0589    8.0697    9.3901 O.3     2  RES22      -0.4849
    115 O7          3.1211    9.6618    8.3375 O.3     2  RES22      -0.4914
    116 O8          3.9134    1.2986   10.4901 O.3     2  RES22      -0.4914
    117 O9         -2.7782    5.5256   13.5239 O.3     2  RES22      -0.4914
    118 O10         4.0133    3.4443    6.2619 O.3     2  RES22      -0.4914
    119 O11        -1.5803    9.3736    7.3913 O.3     2  RES22      -0.4914
    120 O12        -3.2512    1.3043   10.8827 O.3     2  RES22      -0.4914
@<TRIPOS>BOND
     1     1     2    1
     2     3     1    1
     3     4     1    1
     4     5     4   ar
     5     6     5    1
     6     7     5   ar
     7     8     7   ar
     8     9     8   ar
     9    10     9    1
    10    11     4   ar
    11    12    11    1
    12    13    12    1
    13    14    12    1
    14    15    12    1
    15    16    15   ar
    16    17    16    1
    17    18    16   ar
    18    19    18   ar
    19    20    19   ar
    20    21    20    1
    21    22    15   ar
    22    23    22    1
    23    24    23    1
    24    25    23    1
    25    26    23    1
    26    27    26   ar
    27    28    27    1
    28    29    27   ar
    29    30    29   ar
    30    31    30   ar
    31    32    31    1
    32    33     1    1
    33    34    35    1
    34    36    34    1
    35    37    34    1
    36    38    37   ar
    37    39    38    1
    38    40    38   ar
    39    41    40   ar
    40    42    41   ar
    41    43    42    1
    42    44    37   ar
    43    45    44    1
    44    46    45    1
    45    47    45    1
    46    48    45    1
    47    49    48   ar
    48    50    49    1
    49    51    49   ar
    50    52    51   ar
    51    53    52   ar
    52    54    53    1
    53    55    48   ar
    54    56    55    1
    55    57    56    1
    56    58    56    1
    57    59    56    1
    58    60    59   ar
    59    61    60    1
    60    62    60   ar
    61    63    62   ar
    62    64    63   ar
    63    65    64    1
    64    66    34    1
    65    67    68    1
    66    69    67    1
    67    70    67    1
    68    71    70    1
    69    72    70    1
    70    73    74    1
    71    75    73    1
    72    76    73    1
    73    77    76    1
    74    78    76    1
    75    79    80    1
    76    81    79    1
    77    82    79    1
    78    83    82    1
    79    84    82    1
    80    85    86    1
    81    87    85    1
    82    88    85    1
    83    89    90    1
    84    91    89    1
    85    92    89    1
    86    93    94    1
    87    95    93    1
    88    96    93    1
    89    97    98    1
    90    99    97    1
    91   100    97    1
    92   101   102    1
    93   103   101    1
    94   104   101    1
    95   105   106    1
    96   107   105    1
    97   108   105    1
    98   109     8    1
    99   110    41    1
   100   111    19    1
   101   112    63    1
   102   113    30    1
   103   114    52    1
   104   115     7    1
   105   116    18    1
   106   117    29    1
   107   118    40    1
   108   119    51    1
   109   120    62    1
   110     9    11   ar
   111    20    22   ar
   112    26    33   ar
   113    31    33   ar
   114    42    44   ar
   115    53    55   ar
   116    59    66   ar
   117    64    66   ar
   118    67   109    1
   119    70   110    1
   120    73   111    1
   121    76   112    1
   122    79   113    1
   123    82   114    1
   124    85   115    1
   125    89   116    1
   126    93   117    1
   127    97   118    1
   128   101   119    1
   129   105   120    1
