####################################################################### 
# 
# This file contains crystal structure data downloaded from the 
# Cambridge Structural Database (CSD) hosted by the Cambridge 
# Crystallographic Data Centre (CCDC).
# 
# Full information about CCDC data access policies and citation 
# guidelines are available at http://www.ccdc.cam.ac.uk/access/V1 
# 
# Audit and citation data items may have been added by the CCDC. 
# Please retain this information to preserve the provenance of 
# this file and to allow appropriate attribution of the data. 
# 
#######################################################################
@<TRIPOS>MOLECULE
789520
   298   326     1     0     0
SMALL
NO_CHARGES
****
Generated from the CSD

@<TRIPOS>ATOM
     1 C1      14.5760   8.4138  -2.3975   C.3       1 RES1   0.0000
     2 H1      14.5760   8.4138  -1.3986   H         1 RES1   0.0000
     3 C2      14.5760   8.4138  -4.9805   C.3       1 RES1   0.0000
     4 H2      14.5760   8.4138  -5.9805   H         1 RES1   0.0000
     5 C3      13.6878   9.4912  -2.9786   C.ar      1 RES1   0.0000
     6 C4      13.6753   9.5139  -4.3877   C.ar      1 RES1   0.0000
     7 C5      12.9645  10.4487  -5.0835   C.ar      1 RES1   0.0000
     8 H3      12.9815  10.4635  -6.0332   H         1 RES1   0.0000
     9 C6      12.2172  11.3789  -4.3742   C.ar      1 RES1   0.0000
    10 H4      11.7572  12.0640  -4.8453   H         1 RES1   0.0000
    11 C7      12.1340  11.3211  -2.9950   C.ar      1 RES1   0.0000
    12 C8      12.8770  10.4022  -2.2740   C.ar      1 RES1   0.0000
    13 H5      12.8401  10.3853  -1.3225   H         1 RES1   0.0000
    14 N1      11.2683  12.2738  -2.3817   N.2       1 RES1   0.0000
    15 C9      10.6556  11.9714  -1.2909   C.2       1 RES1   0.0000
    16 H6      10.7706  11.1022  -0.9246   H         1 RES1   0.0000
    17 C10      9.7844  12.9283  -0.5904   C.ar      1 RES1   0.0000
    18 C11      9.5333  14.1726  -1.1668   C.ar      1 RES1   0.0000
    19 H7       9.9296  14.3763  -2.0072   H         1 RES1   0.0000
    20 C12      8.7042  15.1463  -0.5442   C.ar      1 RES1   0.0000
    21 C13      8.4414  16.5167  -1.1089   C.3       1 RES1   0.0000
    22 C14      9.3167  16.7737  -2.3501   C.3       1 RES1   0.0000
    23 H8       9.0945  16.1207  -3.0488   H         1 RES1   0.0000
    24 H9      10.2619  16.6836  -2.1066   H         1 RES1   0.0000
    25 H10      9.1499  17.6807  -2.6860   H         1 RES1   0.0000
    26 C15      8.7934  17.5798  -0.0451   C.3       1 RES1   0.0000
    27 H11      8.5771  18.4709  -0.3921   H         1 RES1   0.0000
    28 H12      9.7489  17.5318   0.1580   H         1 RES1   0.0000
    29 H13      8.2739  17.4106   0.7666   H         1 RES1   0.0000
    30 C16      6.9963  16.6377  -1.4893   C.3       1 RES1   0.0000
    31 H14      6.4507  16.6962  -0.6788   H         1 RES1   0.0000
    32 H15      6.7290  15.8506  -2.0072   H         1 RES1   0.0000
    33 H16      6.8660  17.4460  -2.0306   H         1 RES1   0.0000
    34 C17      8.0762  14.7436   0.6566   C.ar      1 RES1   0.0000
    35 H17      7.4621  15.3381   1.0767   H         1 RES1   0.0000
    36 C18      8.3226  13.5130   1.2441   C.ar      1 RES1   0.0000
    37 C19      9.1956  12.6042   0.5934   C.ar      1 RES1   0.0000
    38 O1       9.4666  11.3812   1.1569   O.3       1 RES1   0.0000
    39 H18      9.0435  11.3067   1.8784   H         1 RES1   0.0000
    40 C20      7.7176  13.2214   2.5180   C.2       1 RES1   0.0000
    41 H19      7.0905  13.8412   2.8732   H         1 RES1   0.0000
    42 N2       7.9867  12.1607   3.2003   N.2       1 RES1   0.0000
    43 C21      7.3748  12.0239   4.5059   C.ar      1 RES1   0.0000
    44 C22      6.0691  12.3851   4.7335   C.ar      1 RES1   0.0000
    45 H20      5.5135  12.6598   4.0143   H         1 RES1   0.0000
    46 C23      5.5682  12.3460   6.0303   C.ar      1 RES1   0.0000
    47 H21      4.6609  12.5815   6.1912   H         1 RES1   0.0000
    48 C24      6.3683  11.9714   7.0906   C.ar      1 RES1   0.0000
    49 C25      7.7108  11.5712   6.8127   C.ar      1 RES1   0.0000
    50 C26      8.2017  11.5657   5.5387   C.ar      1 RES1   0.0000
    51 H22      9.0828  11.2587   5.3544   H         1 RES1   0.0000
    52 C27      8.4751  11.2002   8.0720   C.3       1 RES1   0.0000
    53 H23      9.4180  10.9154   7.8999   H         1 RES1   0.0000
    54 C28      7.6504  10.1520   8.8304   C.ar      1 RES1   0.0000
    55 C29      8.0886   8.9403   9.2599   C.ar      1 RES1   0.0000
    56 H24      8.9808   8.6687   9.0820   H         1 RES1   0.0000
    57 C30      7.2402   8.1025   9.9598   C.ar      1 RES1   0.0000
    58 N3       7.7876   6.8075  10.3343   N.2       1 RES1   0.0000
    59 C31      7.1526   6.0555  11.1295   C.2       1 RES1   0.0000
    60 H25      6.3297   6.3539  11.4988   H         1 RES1   0.0000
    61 C32      5.9451   8.4978  10.2155   C.ar      1 RES1   0.0000
    62 H26      5.3576   7.9265  10.6971   H         1 RES1   0.0000
    63 C33      5.4997   9.7252   9.7725   C.ar      1 RES1   0.0000
    64 H27      4.6085   9.9965   9.9598   H         1 RES1   0.0000
    65 C34      6.3336  10.5602   9.0615   C.ar      1 RES1   0.0000
    66 C35      6.0174  11.9613   8.5366   C.3       1 RES1   0.0000
    67 H28      5.0763  12.2508   8.7192   H         1 RES1   0.0000
    68 C36      7.0746  12.8529   9.2242   C.ar      1 RES1   0.0000
    69 C37      6.8258  13.9755   9.9972   C.ar      1 RES1   0.0000
    70 H29      5.9377  14.2880  10.1178   H         1 RES1   0.0000
    71 C38      7.8902  14.6366  10.5912   C.ar      1 RES1   0.0000
    72 H30      7.7245  15.3836  11.1535   H         1 RES1   0.0000
    73 C39      9.2171  14.2125  10.3711   C.ar      1 RES1   0.0000
    74 C40      9.4446  13.1247   9.5566   C.ar      1 RES1   0.0000
    75 H31     10.3319  12.8314   9.3921   H         1 RES1   0.0000
    76 C41      8.3633  12.4520   8.9720   C.ar      1 RES1   0.0000
    77 N4      10.2212  14.9476  11.0459   N.2       1 RES1   0.0000
    78 C42     11.3882  14.9443  10.6064   C.2       1 RES1   0.0000
    79 H32     11.5809  14.4293   9.8310   H         1 RES1   0.0000
    80 C43     12.4886  15.7092  11.2407   C.ar      1 RES1   0.0000
    81 C44     13.8083  15.4590  10.8890   C.ar      1 RES1   0.0000
    82 O2      14.0765  14.4700  10.0025   O.3       1 RES1   0.0000
    83 H33     14.9053  14.4218   9.8778   H         1 RES1   0.0000
    84 C45     14.8275  16.2418  11.4947   C.ar      1 RES1   0.0000
    85 C46     14.5175  17.2170  12.3766   C.ar      1 RES1   0.0000
    86 H34     15.2231  17.7237  12.7569   H         1 RES1   0.0000
    87 C47     13.1914  17.5192  12.7540   C.ar      1 RES1   0.0000
    88 C48     12.9336  18.6322  13.7459   C.3       1 RES1   0.0000
    89 C49     11.3997  18.8089  13.9840   C.3       1 RES1   0.0000
    90 H35     11.2442  19.5967  14.5417   H         1 RES1   0.0000
    91 H36     11.0446  18.0140  14.4364   H         1 RES1   0.0000
    92 H37     10.9469  18.9253  13.1256   H         1 RES1   0.0000
    93 C50     13.4632  19.9120  13.2649   C.3       1 RES1   0.0000
    94 H38     14.4433  19.8870  13.2777   H         1 RES1   0.0000
    95 H39     13.1491  20.6343  13.8454   H         1 RES1   0.0000
    96 H40     13.1506  20.0713  12.3473   H         1 RES1   0.0000
    97 C51     13.5385  18.2346  15.1211   C.3       1 RES1   0.0000
    98 H41     14.4652  17.9408  14.9982   H         1 RES1   0.0000
    99 H42     13.0121  17.5040  15.5131   H         1 RES1   0.0000
   100 H43     13.5193  19.0086  15.7238   H         1 RES1   0.0000
   101 C52     12.2015  16.7230  12.1723   C.ar      1 RES1   0.0000
   102 H44     11.2952  16.8729  12.4175   H         1 RES1   0.0000
   103 C3A     14.0855   7.1084  -2.9786   C.ar      1 RES1   0.0000
   104 C3B     15.9502   8.6442  -2.9786   C.ar      1 RES1   0.0000
   105 C4A     14.0721   7.0862  -4.3877   C.ar      1 RES1   0.0000
   106 C4B     15.9761   8.6437  -4.3877   C.ar      1 RES1   0.0000
   107 C5A     13.6180   6.0032  -5.0835   C.ar      1 RES1   0.0000
   108 C5B     17.1411   8.7919  -5.0835   C.ar      1 RES1   0.0000
   109 H3A     13.5966   6.0105  -6.0332   H         1 RES1   0.0000
   110 H3B     17.1454   8.7697  -6.0332   H         1 RES1   0.0000
   111 C6A     13.1860   4.8910  -4.3742   C.ar      1 RES1   0.0000
   112 C6B     18.3203   8.9739  -4.3742   C.ar      1 RES1   0.0000
   113 H4A     12.8226   4.1501  -4.8453   H         1 RES1   0.0000
   114 H4B     19.1436   9.0297  -4.8453   H         1 RES1   0.0000
   115 C7A     13.2777   4.8478  -2.9950   C.ar      1 RES1   0.0000
   116 C7B     18.3118   9.0749  -2.9950   C.ar      1 RES1   0.0000
   117 C8A     13.7019   5.9507  -2.2740   C.ar      1 RES1   0.0000
   118 C8B     17.1446   8.8909  -2.2740   C.ar      1 RES1   0.0000
   119 H5A     13.7350   5.9272  -1.3225   H         1 RES1   0.0000
   120 H5B     17.1484   8.9312  -1.3225   H         1 RES1   0.0000
   121 N1A     12.8855   3.6217  -2.3817   N.2       1 RES1   0.0000
   122 N1B     19.5698   9.3483  -2.3817   N.2       1 RES1   0.0000
   123 C9A     13.4537   3.2423  -1.2909   C.2       1 RES1   0.0000
   124 C9B     19.6142  10.0301  -1.2909   C.2       1 RES1   0.0000
   125 H6A     14.1489   3.7765  -0.9246   H         1 RES1   0.0000
   126 H6B     18.8040  10.3651  -0.9246   H         1 RES1   0.0000
   127 C10A    13.0605   2.0094  -0.5904   C.ar      1 RES1   0.0000
   128 C10B    20.8786  10.3060  -0.5904   C.ar      1 RES1   0.0000
   129 C11A    12.1085   1.1698  -1.1668   C.ar      1 RES1   0.0000
   130 C11B    22.0817   9.9014  -1.1668   C.ar      1 RES1   0.0000
   131 H7A     11.7339   1.4111  -2.0072   H         1 RES1   0.0000
   132 H7B     22.0600   9.4563  -2.0072   H         1 RES1   0.0000
   133 C12A    11.6799  -0.0351  -0.5442   C.ar      1 RES1   0.0000
   134 C12B    23.3395  10.1326  -0.5442   C.ar      1 RES1   0.0000
   135 C13A    10.6244  -0.9479  -1.1089   C.3       1 RES1   0.0000
   136 C13B    24.6577   9.6749  -1.1089   C.3       1 RES1   0.0000
   137 C14A     9.9641  -0.3183  -2.3501   C.3       1 RES1   0.0000
   138 C14B    24.4426   8.7884  -2.3501   C.3       1 RES1   0.0000
   139 H8A     10.6408  -0.1843  -3.0488   H         1 RES1   0.0000
   140 H8B     23.9882   9.3074  -3.0488   H         1 RES1   0.0000
   141 H9A      9.5696   0.5453  -2.1066   H         1 RES1   0.0000
   142 H9B     23.8920   8.0149  -2.1066   H         1 RES1   0.0000
   143 H10A     9.2621  -0.9163  -2.6860   H         1 RES1   0.0000
   144 H10B    25.3115   8.4794  -2.6860   H         1 RES1   0.0000
   145 C15A     9.5278  -1.1746  -0.0451   C.3       1 RES1   0.0000
   146 C15B    25.4023   8.8386  -0.0451   C.3       1 RES1   0.0000
   147 H11A     8.8642  -1.8075  -0.3921   H         1 RES1   0.0000
   148 H11B    26.2822   8.5804  -0.3921   H         1 RES1   0.0000
   149 H12A     9.0916  -0.3231   0.1580   H         1 RES1   0.0000
   150 H12B    24.8830   8.0351   0.1580   H         1 RES1   0.0000
   151 H13A     9.9340  -1.5399   0.7666   H         1 RES1   0.0000
   152 H13B    25.5156   9.3730   0.7666   H         1 RES1   0.0000
   153 C16A    11.2422  -2.2598  -1.4893   C.3       1 RES1   0.0000
   154 C16B    25.4850  10.8659  -1.4893   C.3       1 RES1   0.0000
   155 H14A    11.4643  -2.7617  -0.6788   H         1 RES1   0.0000
   156 H14B    25.8085  11.3092  -0.6788   H         1 RES1   0.0000
   157 H15A    12.0575  -2.0978  -2.0072   H         1 RES1   0.0000
   158 H15B    24.9370  11.4910  -2.0072   H         1 RES1   0.0000
   159 H16A    10.6073  -2.7768  -2.0306   H         1 RES1   0.0000
   160 H16B    26.2501  10.5746  -2.0306   H         1 RES1   0.0000
   161 C17A    12.3426  -0.3776   0.6566   C.ar      1 RES1   0.0000
   162 C17B    23.3048  10.8778   0.6566   C.ar      1 RES1   0.0000
   163 H17A    12.1347  -1.2067   1.0767   H         1 RES1   0.0000
   164 H17B    24.1266  11.1123   1.0767   H         1 RES1   0.0000
   165 C18A    13.2851   0.4511   1.2441   C.ar      1 RES1   0.0000
   166 C18B    22.1158  11.2797   1.2441   C.ar      1 RES1   0.0000
   167 C19A    13.6356   1.6615   0.5934   C.ar      1 RES1   0.0000
   168 C19B    20.8923  10.9780   0.5934   C.ar      1 RES1   0.0000
   169 O1A     14.5593   2.5077   1.1569   O.3       1 RES1   0.0000
   170 O1B     19.6976  11.3549   1.1569   O.3       1 RES1   0.0000
   171 H18A    14.8354   2.1785   1.8784   H         1 RES1   0.0000
   172 H18B    19.8446  11.7586   1.8784   H         1 RES1   0.0000
   173 C20A    13.8401   0.0730   2.5180   C.2       1 RES1   0.0000
   174 C20B    22.1658  11.9494   2.5180   C.2       1 RES1   0.0000
   175 H19A    13.6170  -0.7800   2.8732   H         1 RES1   0.0000
   176 H19B    23.0161  12.1826   2.8732   H         1 RES1   0.0000
   177 N2A     14.6242   0.8363   3.2003   N.2       1 RES1   0.0000
   178 N2B     21.1126  12.2468   3.2003   N.2       1 RES1   0.0000
   179 C21A    15.0486   0.3749   4.5059   C.ar      1 RES1   0.0000
   180 C21B    21.3000  12.8450   4.5059   C.ar      1 RES1   0.0000
   181 C22A    15.3886  -0.9365   4.7335   C.ar      1 RES1   0.0000
   182 C22B    22.2658  13.7952   4.7335   C.ar      1 RES1   0.0000
   183 H20A    15.4286  -1.5550   4.0143   H         1 RES1   0.0000
   184 H20B    22.7814  14.1390   4.0143   H         1 RES1   0.0000
   185 C23A    15.6730  -1.3508   6.0303   C.ar      1 RES1   0.0000
   186 C23B    22.4823  14.2486   6.0303   C.ar      1 RES1   0.0000
   187 H21A    15.9226  -2.2543   6.1912   H         1 RES1   0.0000
   188 H21B    23.1399  14.9165   6.1912   H         1 RES1   0.0000
   189 C24A    15.5973  -0.4705   7.0906   C.ar      1 RES1   0.0000
   190 C24B    21.7578  13.7430   7.0906   C.ar      1 RES1   0.0000
   191 C25A    15.2726   0.8921   6.8127   C.ar      1 RES1   0.0000
   192 C25B    20.7401  12.7804   6.8127   C.ar      1 RES1   0.0000
   193 C26A    15.0320   1.3200   5.5387   C.ar      1 RES1   0.0000
   194 C26B    20.4899  12.3581   5.5387   C.ar      1 RES1   0.0000
   195 H22A    14.8572   2.2366   5.3544   H         1 RES1   0.0000
   196 H22B    19.7834  11.7485   5.3544   H         1 RES1   0.0000
   197 C27A    15.2118   1.7395   8.0720   C.3       1 RES1   0.0000
   198 C27B    20.0366  12.3041   8.0720   C.3       1 RES1   0.0000
   199 H23A    14.9870   2.6986   7.8999   H         1 RES1   0.0000
   200 H23B    19.3185  11.6298   7.8999   H         1 RES1   0.0000
   201 C28A    16.5319   1.5495   8.8304   C.ar      1 RES1   0.0000
   202 C28B    19.5412  13.5423   8.8304   C.ar      1 RES1   0.0000
   203 C29A    17.3622   2.5347   9.2599   C.ar      1 RES1   0.0000
   204 C29B    18.2728  13.7687   9.2599   C.ar      1 RES1   0.0000
   205 H24A    17.1513   3.4433   9.0820   H         1 RES1   0.0000
   206 H24B    17.5914  13.1318   9.0820   H         1 RES1   0.0000
   207 C30A    18.5119   2.2189   9.9598   C.ar      1 RES1   0.0000
   208 C30B    17.9714  14.9224   9.9598   C.ar      1 RES1   0.0000
   209 N3A     19.3597   3.3405  10.3343   N.2       1 RES1   0.0000
   210 N3B     16.5762  15.0958  10.3343   N.2       1 RES1   0.0000
   211 C31A    20.3285   3.1666  11.1295   C.2       1 RES1   0.0000
   212 C31B    16.2424  16.0217  11.1295   C.2       1 RES1   0.0000
   213 H25A    20.4815   2.3048  11.4988   H         1 RES1   0.0000
   214 H25B    16.9122  16.5852  11.4988   H         1 RES1   0.0000
   215 C32A    18.8171   0.8997  10.2155   C.ar      1 RES1   0.0000
   216 C32B    18.9613  15.8463  10.2155   C.ar      1 RES1   0.0000
   217 H26A    19.6056   0.6765  10.6971   H         1 RES1   0.0000
   218 H26B    18.7603  16.6407  10.6971   H         1 RES1   0.0000
   219 C33A    17.9769  -0.0997   9.7725   C.ar      1 RES1   0.0000
   220 C33B    20.2469  15.6183   9.7725   C.ar      1 RES1   0.0000
   221 H27A    18.1875  -1.0072   9.9598   H         1 RES1   0.0000
   222 H27B    20.9275  16.2545   9.9598   H         1 RES1   0.0000
   223 C34A    16.8368   0.2050   9.0615   C.ar      1 RES1   0.0000
   224 C34B    20.5531  14.4786   9.0615   C.ar      1 RES1   0.0000
   225 C35A    15.7816  -0.7694   8.5366   C.3       1 RES1   0.0000
   226 C35B    21.9246  14.0519   8.5366   C.3       1 RES1   0.0000
   227 H28A    16.0013  -1.7292   8.7192   H         1 RES1   0.0000
   228 H28B    22.6459  14.7222   8.7192   H         1 RES1   0.0000
   229 C36A    14.4808  -0.2996   9.2242   C.ar      1 RES1   0.0000
   230 C36B    22.1681  12.6906   9.2242   C.ar      1 RES1   0.0000
   231 C37A    13.6330  -1.0764   9.9972   C.ar      1 RES1   0.0000
   232 C37B    23.2647  12.3447   9.9972   C.ar      1 RES1   0.0000
   233 H29A    13.8064  -2.0018  10.1178   H         1 RES1   0.0000
   234 H29B    23.9794  12.9576  10.1178   H         1 RES1   0.0000
   235 C38A    12.5282  -0.4852  10.5912   C.ar      1 RES1   0.0000
   236 C38B    23.3051  11.0924  10.5912   C.ar      1 RES1   0.0000
   237 H30A    11.9642  -1.0022  11.1535   H         1 RES1   0.0000
   238 H30B    24.0348  10.8624  11.1535   H         1 RES1   0.0000
   239 C39A    12.2321   0.8760  10.3711   C.ar      1 RES1   0.0000
   240 C39B    22.2744  10.1553  10.3711   C.ar      1 RES1   0.0000
   241 C40A    13.0604   1.6169   9.5566   C.ar      1 RES1   0.0000
   242 C40B    21.2186  10.5022   9.5566   C.ar      1 RES1   0.0000
   243 H31A    12.8707   2.5320   9.3921   H         1 RES1   0.0000
   244 H31B    20.5209   9.8804   9.3921   H         1 RES1   0.0000
   245 C41A    14.1836   1.0168   8.9720   C.ar      1 RES1   0.0000
   246 C41B    21.1766  11.7750   8.9720   C.ar      1 RES1   0.0000
   247 N4A     11.0934   1.3781  11.0459   N.2       1 RES1   0.0000
   248 N4B     22.4089   8.9181  11.0459   N.2       1 RES1   0.0000
   249 C42A    10.5127   2.3903  10.6064   C.2       1 RES1   0.0000
   250 C42B    21.8225   7.9091  10.6064   C.2       1 RES1   0.0000
   251 H32A    10.8624   2.8147   9.8310   H         1 RES1   0.0000
   252 H32B    21.2802   7.9998   9.8310   H         1 RES1   0.0000
   253 C43A     9.3001   2.9608  11.2407   C.ar      1 RES1   0.0000
   254 C43B    21.9348   6.5737  11.2407   C.ar      1 RES1   0.0000
   255 C44A     8.8569   4.2288  10.8890   C.ar      1 RES1   0.0000
   256 C44B    21.0583   5.5559  10.8890   C.ar      1 RES1   0.0000
   257 O2A      9.5794   4.9556  10.0025   O.3       1 RES1   0.0000
   258 O2B     20.0676   5.8182  10.0025   O.3       1 RES1   0.0000
   259 H33A     9.2067   5.6975   9.8778   H         1 RES1   0.0000
   260 H33B    19.6114   5.1245   9.8778   H         1 RES1   0.0000
   261 C45A     7.6694   4.7201  11.4947   C.ar      1 RES1   0.0000
   262 C45B    21.2266   4.2818  11.4947   C.ar      1 RES1   0.0000
   263 C46A     6.9799   3.9640  12.3766   C.ar      1 RES1   0.0000
   264 C46B    22.2261   4.0627  12.3766   C.ar      1 RES1   0.0000
   265 H34A     6.1883   4.3217  12.7569   H         1 RES1   0.0000
   266 H34B    22.3121   3.1984  12.7569   H         1 RES1   0.0000
   267 C47A     7.3813   2.6645  12.7540   C.ar      1 RES1   0.0000
   268 C47B    23.1509   5.0601  12.7540   C.ar      1 RES1   0.0000
   269 C48A     6.5463   1.8847  13.7459   C.3       1 RES1   0.0000
   270 C48B    24.2437   4.7269  13.7459   C.3       1 RES1   0.0000
   271 C49A     7.1602   0.4680  13.9840   C.3       1 RES1   0.0000
   272 C49B    25.1636   5.9669  13.9840   C.3       1 RES1   0.0000
   273 H35A     6.5556  -0.0606  14.5417   H         1 RES1   0.0000
   274 H35B    25.9237   5.7076  14.5417   H         1 RES1   0.0000
   275 H36A     8.0262   0.5579  14.4364   H         1 RES1   0.0000
   276 H36B    24.6528   6.6719  14.4364   H         1 RES1   0.0000
   277 H37A     7.2858   0.0177  13.1256   H         1 RES1   0.0000
   278 H37B    25.4908   6.3008  13.1256   H         1 RES1   0.0000
   279 C50A     5.1731   1.7034  13.2649   C.3       1 RES1   0.0000
   280 C50B    25.0872   3.6283  13.2649   C.3       1 RES1   0.0000
   281 H38A     4.7046   2.5648  13.2777   H         1 RES1   0.0000
   282 H38B    24.5755   2.7920  13.2777   H         1 RES1   0.0000
   283 H39A     4.7046   1.0703  13.8454   H         1 RES1   0.0000
   284 H39B    25.8697   3.5392  13.8454   H         1 RES1   0.0000
   285 H40A     5.1914   1.3531  12.3473   H         1 RES1   0.0000
   286 H40B    25.3815   3.8194  12.3473   H         1 RES1   0.0000
   287 C51A     6.5881   2.6074  15.1211   C.3       1 RES1   0.0000
   288 C51B    23.5968   4.4018  15.1211   C.3       1 RES1   0.0000
   289 H41A     6.3793   3.5568  14.9982   H         1 RES1   0.0000
   290 H41B    22.8791   3.7462  14.9982   H         1 RES1   0.0000
   291 H42A     7.4840   2.5168  15.5131   H         1 RES1   0.0000
   292 H42B    23.2274   5.2229  15.5131   H         1 RES1   0.0000
   293 H43A     5.9274   2.2038  15.7238   H         1 RES1   0.0000
   294 H43B    24.2767   4.0314  15.7238   H         1 RES1   0.0000
   295 C52A     8.5657   2.2053  12.1723   C.ar      1 RES1   0.0000
   296 C52B    22.9563   6.3155  12.1723   C.ar      1 RES1   0.0000
   297 H44A     8.8890   1.3455  12.4175   H         1 RES1   0.0000
   298 H44B    23.5393   7.0253  12.4175   H         1 RES1   0.0000
@<TRIPOS>BOND
     1     1     2    1
     2     3     4    1
     3     5     1    1
     4     6     3    1
     5     7     6   ar
     6     8     7    1
     7     9     7   ar
     8    10     9    1
     9    11     9   ar
    10    12     5   ar
    11    13    12    1
    12    14    11    1
    13    15    14    2
    14    16    15    1
    15    17    15    1
    16    18    17   ar
    17    19    18    1
    18    20    18   ar
    19    21    20    1
    20    22    21    1
    21    23    22    1
    22    24    22    1
    23    25    22    1
    24    26    21    1
    25    27    26    1
    26    28    26    1
    27    29    26    1
    28    30    21    1
    29    31    30    1
    30    32    30    1
    31    33    30    1
    32    34    20   ar
    33    35    34    1
    34    36    34   ar
    35    37    17   ar
    36    38    37    1
    37    39    38    1
    38    40    36    1
    39    41    40    1
    40    42    40    2
    41    43    42    1
    42    44    43   ar
    43    45    44    1
    44    46    44   ar
    45    47    46    1
    46    48    46   ar
    47    49    48   ar
    48    50    43   ar
    49    51    50    1
    50    52    49    1
    51    53    52    1
    52    54    52    1
    53    55    54   ar
    54    56    55    1
    55    57    55   ar
    56    58    57    1
    57    59    58    2
    58    60    59    1
    59    61    57   ar
    60    62    61    1
    61    63    61   ar
    62    64    63    1
    63    65    54   ar
    64    66    48    1
    65    67    66    1
    66    68    66    1
    67    69    68   ar
    68    70    69    1
    69    71    69   ar
    70    72    71    1
    71    73    71   ar
    72    74    73   ar
    73    75    74    1
    74    76    52    1
    75    77    73    1
    76    78    77    2
    77    79    78    1
    78    80    78    1
    79    81    80   ar
    80    82    81    1
    81    83    82    1
    82    84    81   ar
    83    85    84   ar
    84    86    85    1
    85    87    85   ar
    86    88    87    1
    87    89    88    1
    88    90    89    1
    89    91    89    1
    90    92    89    1
    91    93    88    1
    92    94    93    1
    93    95    93    1
    94    96    93    1
    95    97    88    1
    96    98    97    1
    97    99    97    1
    98   100    97    1
    99   101    80   ar
   100   102   101    1
   101   103     1    1
   102   104     1    1
   103   105     3    1
   104   106     3    1
   105   107   105   ar
   106   108   106   ar
   107   109   107    1
   108   110   108    1
   109   111   107   ar
   110   112   108   ar
   111   113   111    1
   112   114   112    1
   113   115   111   ar
   114   116   112   ar
   115   117   103   ar
   116   118   104   ar
   117   119   117    1
   118   120   118    1
   119   121   115    1
   120   122   116    1
   121   123   121    2
   122   124   122    2
   123   125   123    1
   124   126   124    1
   125   127   123    1
   126   128   124    1
   127   129   127   ar
   128   130   128   ar
   129   131   129    1
   130   132   130    1
   131   133   129   ar
   132   134   130   ar
   133   135   133    1
   134   136   134    1
   135   137   135    1
   136   138   136    1
   137   139   137    1
   138   140   138    1
   139   141   137    1
   140   142   138    1
   141   143   137    1
   142   144   138    1
   143   145   135    1
   144   146   136    1
   145   147   145    1
   146   148   146    1
   147   149   145    1
   148   150   146    1
   149   151   145    1
   150   152   146    1
   151   153   135    1
   152   154   136    1
   153   155   153    1
   154   156   154    1
   155   157   153    1
   156   158   154    1
   157   159   153    1
   158   160   154    1
   159   161   133   ar
   160   162   134   ar
   161   163   161    1
   162   164   162    1
   163   165   161   ar
   164   166   162   ar
   165   167   127   ar
   166   168   128   ar
   167   169   167    1
   168   170   168    1
   169   171   169    1
   170   172   170    1
   171   173   165    1
   172   174   166    1
   173   175   173    1
   174   176   174    1
   175   177   173    2
   176   178   174    2
   177   179   177    1
   178   180   178    1
   179   181   179   ar
   180   182   180   ar
   181   183   181    1
   182   184   182    1
   183   185   181   ar
   184   186   182   ar
   185   187   185    1
   186   188   186    1
   187   189   185   ar
   188   190   186   ar
   189   191   189   ar
   190   192   190   ar
   191   193   179   ar
   192   194   180   ar
   193   195   193    1
   194   196   194    1
   195   197   191    1
   196   198   192    1
   197   199   197    1
   198   200   198    1
   199   201   197    1
   200   202   198    1
   201   203   201   ar
   202   204   202   ar
   203   205   203    1
   204   206   204    1
   205   207   203   ar
   206   208   204   ar
   207   209   207    1
   208   210   208    1
   209   211   209    2
   210   212    84    1
   211   213   211    1
   212   214   212    1
   213   215   207   ar
   214   216   208   ar
   215   217   215    1
   216   218   216    1
   217   219   215   ar
   218   220   216   ar
   219   221   219    1
   220   222   220    1
   221   223   201   ar
   222   224   202   ar
   223   225   189    1
   224   226   190    1
   225   227   225    1
   226   228   226    1
   227   229   225    1
   228   230   226    1
   229   231   229   ar
   230   232   230   ar
   231   233   231    1
   232   234   232    1
   233   235   231   ar
   234   236   232   ar
   235   237   235    1
   236   238   236    1
   237   239   235   ar
   238   240   236   ar
   239   241   239   ar
   240   242   240   ar
   241   243   241    1
   242   244   242    1
   243   245   197    1
   244   246   198    1
   245   247   239    1
   246   248   240    1
   247   249   247    2
   248   250   248    2
   249   251   249    1
   250   252   250    1
   251   253   249    1
   252   254   250    1
   253   255   253   ar
   254   256   254   ar
   255   257   255    1
   256   258   256    1
   257   259   257    1
   258   260   258    1
   259   261    59    1
   260   262   211    1
   261   263   261   ar
   262   264   262   ar
   263   265   263    1
   264   266   264    1
   265   267   263   ar
   266   268   264   ar
   267   269   267    1
   268   270   268    1
   269   271   269    1
   270   272   270    1
   271   273   271    1
   272   274   272    1
   273   275   271    1
   274   276   272    1
   275   277   271    1
   276   278   272    1
   277   279   269    1
   278   280   270    1
   279   281   279    1
   280   282   280    1
   281   283   279    1
   282   284   280    1
   283   285   279    1
   284   286   280    1
   285   287   269    1
   286   288   270    1
   287   289   287    1
   288   290   288    1
   289   291   287    1
   290   292   288    1
   291   293   287    1
   292   294   288    1
   293   295   253   ar
   294   296   254   ar
   295   297   295    1
   296   298   296    1
   297     5     6   ar
   298    11    12   ar
   299    36    37   ar
   300    49    50   ar
   301    63    65   ar
   302    65    66    1
   303    68    76   ar
   304    74    76   ar
   305    87   101   ar
   306   103   105   ar
   307   104   106   ar
   308   115   117   ar
   309   116   118   ar
   310   165   167   ar
   311   166   168   ar
   312   191   193   ar
   313   192   194   ar
   314   210   212    2
   315   219   223   ar
   316   220   224   ar
   317   223   225    1
   318   224   226    1
   319   229   245   ar
   320   230   246   ar
   321   241   245   ar
   322   242   246   ar
   323   255   261   ar
   324   256   262   ar
   325   267   295   ar
   326   268   296   ar
@<TRIPOS>SUBSTRUCTURE
     1 RES1        1 GROUP             0 ****  ****    0  
@<TRIPOS>CRYSIN
   29.1490   29.1490   58.5180   90.0000   90.0000  120.0000   233     1
 

