@<TRIPOS>MOLECULE
*****
 132 141 0 0 0
SMALL
GASTEIGER

@<TRIPOS>ATOM
      1 N1         -3.1569   -4.4742   -1.4036 N.2     1  RES11      -0.2890
      2 O1         -4.8310   -0.8246   -1.5942 O.3     1  RES11      -0.4945
      3 C1         -3.6925   -0.9741   -2.3410 C.ar    1  RES11       0.1289
      4 C2         -3.0648   -2.2323   -2.2877 C.ar    1  RES11       0.0345
      5 C3         -1.9310   -2.4233   -3.0584 C.ar    1  RES11      -0.0459
      6 H1         -1.5073   -3.2732   -3.0331 H       1  RES11       0.0628
      7 C4         -1.3809   -1.4350   -3.8676 C.ar    1  RES11      -0.0387
      8 C5         -1.9969   -0.1836   -3.8913 C.ar    1  RES11      -0.0361
      9 C6         -3.1582    0.0295   -3.1410 C.ar    1  RES11      -0.0156
     10 H2         -3.5891    0.8744   -3.1786 H       1  RES11       0.0657
     11 C7         -5.4846    0.4324   -1.6790 C.3     1  RES11       0.0788
     12 H3         -6.2787    0.4267   -1.1034 H       1  RES11       0.0660
     13 H4         -5.7536    0.5979   -2.6058 H       1  RES11       0.0660
     14 H5         -4.8735    1.1397   -1.3851 H       1  RES11       0.0660
     15 C8         -3.6209   -3.2872   -1.4247 C.2     1  RES11       0.0328
     16 H6         -4.3549   -3.0739   -0.8616 H       1  RES11       0.0832
     17 C9         -3.7999   -5.3970   -0.4742 C.3     1  RES11       0.0591
     18 H7         -4.2415   -6.1253   -0.9813 H       1  RES11       0.0526
     19 H8         -4.4935   -4.9168    0.0446 H       1  RES11       0.0526
     20 C10        -0.1383   -1.7760   -4.6822 C.3     1  RES11      -0.0017
     21 H9         -0.0972   -1.1790   -5.4722 H       1  RES11       0.0362
     22 H10        -0.2156   -2.7061   -5.0121 H       1  RES11       0.0362
     23 N1A         5.4533   -0.4969   -1.4036 N.2     1  RES11      -0.2890
     24 N1E         5.4533    0.4969    1.4036 N.2     1  RES11      -0.2890
     25 N1C        -2.2963   -4.9711    1.4036 N.2     1  RES11      -0.2890
     26 N1D        -3.1569    4.4742    1.4036 N.2     1  RES11      -0.2890
     27 N1B        -2.2963    4.9711   -1.4036 N.2     1  RES11      -0.2890
     28 O1A         3.1296   -3.7715   -1.5942 O.3     1  RES11      -0.4945
     29 O1E         3.1296    3.7715    1.5942 O.3     1  RES11      -0.4945
     30 O1C         1.7014   -4.5961    1.5942 O.3     1  RES11      -0.4945
     31 O1D        -4.8310    0.8246    1.5942 O.3     1  RES11      -0.4945
     32 O1B         1.7014    4.5961   -1.5942 O.3     1  RES11      -0.4945
     33 C1A         2.6898   -2.7108   -2.3410 C.ar    1  RES11       0.1289
     34 C1E         2.6898    2.7108    2.3410 C.ar    1  RES11       0.1289
     35 C1C         1.0027   -3.6849    2.3410 C.ar    1  RES11       0.1289
     36 C1D        -3.6925    0.9741    2.3410 C.ar    1  RES11       0.1289
     37 C1B         1.0027    3.6849   -2.3410 C.ar    1  RES11       0.1289
     38 C2A         3.4656   -1.5381   -2.2877 C.ar    1  RES11       0.0345
     39 C2E         3.4656    1.5381    2.2877 C.ar    1  RES11       0.0345
     40 C2C        -0.4008   -3.7703    2.2877 C.ar    1  RES11       0.0345
     41 C2D        -3.0648    2.2323    2.2877 C.ar    1  RES11       0.0345
     42 C2B        -0.4008    3.7703   -2.2877 C.ar    1  RES11       0.0345
     43 C3A         3.0642   -0.4607   -3.0584 C.ar    1  RES11      -0.0459
     44 C3E         3.0642    0.4607    3.0584 C.ar    1  RES11      -0.0459
     45 C3C        -1.1331   -2.8840    3.0584 C.ar    1  RES11      -0.0459
     46 C3D        -1.9310    2.4233    3.0584 C.ar    1  RES11      -0.0459
     47 C3B        -1.1331    2.8840   -3.0584 C.ar    1  RES11      -0.0459
     48 H1E         3.5883   -0.3312    3.0331 H       1  RES11       0.0628
     49 H1C        -2.0810   -2.9419    3.0331 H       1  RES11       0.0628
     50 H1B        -2.0810    2.9419   -3.0331 H       1  RES11       0.0628
     51 H1D        -1.5073    3.2732    3.0331 H       1  RES11       0.0628
     52 H1A         3.5883    0.3312   -3.0331 H       1  RES11       0.0628
     53 C4A         1.9332   -0.4783   -3.8676 C.ar    1  RES11      -0.0387
     54 C4E         1.9332    0.4783    3.8676 C.ar    1  RES11      -0.0387
     55 C4C        -0.5523   -1.9134    3.8676 C.ar    1  RES11      -0.0387
     56 C4D        -1.3809    1.4350    3.8676 C.ar    1  RES11      -0.0387
     57 C4B        -0.5523    1.9134   -3.8676 C.ar    1  RES11      -0.0387
     58 C5A         1.1574   -1.6376   -3.8913 C.ar    1  RES11      -0.0361
     59 C5E         1.1574    1.6376    3.8913 C.ar    1  RES11      -0.0361
     60 C5C         0.8395   -1.8212    3.8913 C.ar    1  RES11      -0.0361
     61 C5D        -1.9969    0.1836    3.8913 C.ar    1  RES11      -0.0361
     62 C5B         0.8395    1.8212   -3.8913 C.ar    1  RES11      -0.0361
     63 C6A         1.5536   -2.7498   -3.1410 C.ar    1  RES11      -0.0156
     64 C6E         1.5536    2.7498    3.1410 C.ar    1  RES11      -0.0156
     65 C6C         1.6046   -2.7203    3.1410 C.ar    1  RES11      -0.0156
     66 C6D        -3.1582   -0.0295    3.1410 C.ar    1  RES11      -0.0156
     67 C6B         1.6046    2.7203   -3.1410 C.ar    1  RES11      -0.0156
     68 H2A         1.0373   -3.5455   -3.1786 H       1  RES11       0.0657
     69 H2C         2.5518   -2.6710    3.1786 H       1  RES11       0.0657
     70 H2D        -3.5891   -0.8744    3.1786 H       1  RES11       0.0657
     71 H2B         2.5518    2.6710   -3.1786 H       1  RES11       0.0657
     72 H2E         1.0373    3.5455    3.1786 H       1  RES11       0.0657
     73 C7A         2.3678   -4.9661   -1.6790 C.3     1  RES11       0.0788
     74 C7E         2.3678    4.9661    1.6790 C.3     1  RES11       0.0788
     75 C7C         3.1168   -4.5336    1.6790 C.3     1  RES11       0.0788
     76 C7D        -5.4846   -0.4324    1.6790 C.3     1  RES11       0.0788
     77 C7B         3.1168    4.5336   -1.6790 C.3     1  RES11       0.0788
     78 H3A         2.7698   -5.6509   -1.1034 H       1  RES11       0.0660
     79 H3E         2.7698    5.6509    1.1034 H       1  RES11       0.0660
     80 H3C         3.5089   -5.2242    1.1034 H       1  RES11       0.0660
     81 H3D        -6.2787   -0.4267    1.1034 H       1  RES11       0.0660
     82 H3B         3.5089    5.2242   -1.1034 H       1  RES11       0.0660
     83 H4A         2.3590   -5.2817   -2.6058 H       1  RES11       0.0660
     84 H4E         2.3590    5.2817    2.6058 H       1  RES11       0.0660
     85 H4C         3.3946   -4.6838    2.6058 H       1  RES11       0.0660
     86 H4D        -5.7536   -0.5979    2.6058 H       1  RES11       0.0660
     87 H4B         3.3946    4.6838   -2.6058 H       1  RES11       0.0660
     88 H5A         1.4497   -4.7905   -1.3851 H       1  RES11       0.0660
     89 H5E         1.4497    4.7905    1.3851 H       1  RES11       0.0660
     90 H5C         3.4238   -3.6507    1.3851 H       1  RES11       0.0660
     91 H5D        -4.8735   -1.1397    1.3851 H       1  RES11       0.0660
     92 H5B         3.4238    3.6507   -1.3851 H       1  RES11       0.0660
     93 C8A         4.6572   -1.4922   -1.4247 C.2     1  RES11       0.0328
     94 C8E         4.6572    1.4922    1.4247 C.2     1  RES11       0.0328
     95 C8C        -1.0364   -4.7794    1.4247 C.2     1  RES11       0.0328
     96 C8D        -3.6209    3.2872    1.4247 C.2     1  RES11       0.0328
     97 C8B        -1.0364    4.7794   -1.4247 C.2     1  RES11       0.0328
     98 H6C        -0.4846   -5.3084    0.8616 H       1  RES11       0.0832
     99 H6B        -0.4846    5.3084   -0.8616 H       1  RES11       0.0832
    100 H6D        -4.3549    3.0739    0.8616 H       1  RES11       0.0832
    101 H6E         4.8395    2.2345    0.8616 H       1  RES11       0.0832
    102 H6A         4.8395   -2.2345   -0.8616 H       1  RES11       0.0832
    103 C9A         6.5738   -0.5923   -0.4742 C.3     1  RES11       0.0591
    104 C9E         6.5738    0.5923    0.4742 C.3     1  RES11       0.0591
    105 C9C        -2.7740   -5.9893    0.4742 C.3     1  RES11       0.0591
    106 C9D        -3.7999    5.3970    0.4742 C.3     1  RES11       0.0591
    107 C9B        -2.7740    5.9893   -0.4742 C.3     1  RES11       0.0591
    108 H7C        -3.1839   -6.7358    0.9813 H       1  RES11       0.0526
    109 H7B        -3.1839    6.7358   -0.9813 H       1  RES11       0.0526
    110 H7D        -4.2415    6.1253    0.9813 H       1  RES11       0.0526
    111 H7E         7.4254    0.6106    0.9813 H       1  RES11       0.0526
    112 H7A         7.4254   -0.6106   -0.9813 H       1  RES11       0.0526
    113 H8C        -2.0113   -6.3499   -0.0446 H       1  RES11       0.0526
    114 H8B        -2.0113    6.3499    0.0446 H       1  RES11       0.0526
    115 H8D        -4.4935    4.9168   -0.0446 H       1  RES11       0.0526
    116 H8E         6.5048    1.4331   -0.0446 H       1  RES11       0.0526
    117 H8A         6.5048   -1.4331    0.0446 H       1  RES11       0.0526
    118 C10E        1.6072   -0.7682    4.6822 C.3     1  RES11      -0.0017
    119 C10C       -1.4689   -1.0078    4.6822 C.3     1  RES11      -0.0017
    120 C10B       -1.4689    1.0078   -4.6822 C.3     1  RES11      -0.0017
    121 C10A        1.6072    0.7682   -4.6822 C.3     1  RES11      -0.0017
    122 C10D       -0.1383    1.7760    4.6822 C.3     1  RES11      -0.0017
    123 H9B        -0.9724    0.6737   -5.4722 H       1  RES11       0.0362
    124 H9A         1.0697    0.5053   -5.4722 H       1  RES11       0.0362
    125 H9D        -0.0972    1.1790    5.4722 H       1  RES11       0.0362
    126 H9C        -0.9724   -0.6737    5.4722 H       1  RES11       0.0362
    127 H9E         1.0697   -0.5053    5.4722 H       1  RES11       0.0362
    128 H10B       -2.2358    1.5397   -5.0121 H       1  RES11       0.0362
    129 H10A        2.4514    1.1664   -5.0121 H       1  RES11       0.0362
    130 H10D       -0.2156    2.7061    5.0121 H       1  RES11       0.0362
    131 H10C       -2.2358   -1.5397    5.0121 H       1  RES11       0.0362
    132 H10E        2.4514   -1.1664    5.0121 H       1  RES11       0.0362
@<TRIPOS>BOND
     1     1    15    2
     2     2     3    1
     3     3     4   ar
     4     4     5   ar
     5     5     6    1
     6     7     5   ar
     7     8     7   ar
     8     9     3   ar
     9    10     9    1
    10    11     2    1
    11    12    11    1
    12    13    11    1
    13    14    11    1
    14    15     4    1
    15    16    15    1
    16    17     1    1
    17    18    17    1
    18    19    17    1
    19    20     7    1
    20    21    20    1
    21    22    20    1
    22    23    93    2
    23    24    94    2
    24    25    95    2
    25    26    96    2
    26    27    97    2
    27    28    33    1
    28    29    34    1
    29    30    35    1
    30    31    36    1
    31    32    37    1
    32    33    38   ar
    33    34    39   ar
    34    35    40   ar
    35    36    41   ar
    36    37    42   ar
    37    38    43   ar
    38    39    44   ar
    39    40    45   ar
    40    41    46   ar
    41    42    47   ar
    42    43    52    1
    43    44    48    1
    44    45    49    1
    45    46    51    1
    46    47    50    1
    47    53    43   ar
    48    54    44   ar
    49    55    45   ar
    50    56    46   ar
    51    57    47   ar
    52    58    20    1
    53    59    54   ar
    54    60    55   ar
    55    61    56   ar
    56    62    57   ar
    57    63    33   ar
    58    64    34   ar
    59    65    35   ar
    60    66    36   ar
    61    67    37   ar
    62    68    63    1
    63    69    65    1
    64    70    66    1
    65    71    67    1
    66    72    64    1
    67    73    28    1
    68    74    29    1
    69    75    30    1
    70    76    31    1
    71    77    32    1
    72    78    73    1
    73    79    74    1
    74    80    75    1
    75    81    76    1
    76    82    77    1
    77    83    73    1
    78    84    74    1
    79    85    75    1
    80    86    76    1
    81    87    77    1
    82    88    73    1
    83    89    74    1
    84    90    75    1
    85    91    76    1
    86    92    77    1
    87    93    38    1
    88    94    39    1
    89    95    40    1
    90    96    41    1
    91    97    42    1
    92    98    95    1
    93    99    97    1
    94   100    96    1
    95   101    94    1
    96   102    93    1
    97   103    23    1
    98   104    24    1
    99   105    17    1
   100   106    26    1
   101   107    27    1
   102   108   105    1
   103   109   107    1
   104   110   106    1
   105   111   104    1
   106   112   103    1
   107   113   105    1
   108   114   107    1
   109   115   106    1
   110   116   104    1
   111   117   103    1
   112   118    54    1
   113   119    55    1
   114   120     8    1
   115   121    53    1
   116   122    56    1
   117   123   120    1
   118   124   121    1
   119   125   122    1
   120   126   119    1
   121   127   118    1
   122   128   120    1
   123   129   121    1
   124   130   122    1
   125   131   119    1
   126   132   118    1
   127     8     9   ar
   128    25   105    1
   129    53    58   ar
   130    57   120    1
   131    58    63   ar
   132    59    64   ar
   133    59   122    1
   134    60    65   ar
   135    60   118    1
   136    61    66   ar
   137    61   119    1
   138    62    67   ar
   139    62   121    1
   140   103   104    1
   141   106   107    1
