@<TRIPOS>MOLECULE
*****
 232 264 0 0 0
SMALL
GASTEIGER

@<TRIPOS>ATOM
      1 N1         -3.8900    3.8900    3.8900 N.3     1  RES11      -0.2784
      2 N2         -9.0583    1.0640    1.2091 N.3     1  RES11       0.3458
      3 C1         -8.1000    0.6186    1.8602 C.3     1  RES11      -0.1532
      4 H1         -8.0648   -0.3162    2.0267 H       1  RES11      -0.0006
      5 C2         -7.0126    1.4651    2.3914 C.3     1  RES11      -0.0395
      6 C3         -4.9096    3.0537    3.4036 C.3     1  RES11       0.0489
      7 C4         -4.8268    1.6648    3.4072 C.3     1  RES11      -0.0120
      8 H2         -4.0505    1.2437    3.7553 H       1  RES11       0.0326
      9 C5         -6.0715    3.6280    2.8950 C.3     1  RES11      -0.0120
     10 H3         -6.1555    4.5745    2.8910 H       1  RES11       0.0326
     11 C6         -7.1014    2.8594    2.3981 C.3     1  RES11      -0.0280
     12 H4         -7.8811    3.2825    2.0569 H       1  RES11       0.0312
     13 C7        -10.0581    0.0973    0.7743 C.3     1  RES11      -0.3333
     14 H5         -9.8928   -0.7800    1.2227 H       1  RES11      -0.0375
     15 C8         -5.8547    0.8926    2.9157 C.3     1  RES11      -0.0280
     16 H6         -5.7730   -0.0542    2.9332 H       1  RES11       0.0312
     17 C9        -11.4726    0.5562    1.0607 C.3     1  RES11      -0.4965
     18 H7        -11.8593    0.0331    1.8069 H       1  RES11      -0.2210
     19 H8        -11.4768    1.5148    1.3130 H       1  RES11      -0.2210
     20 C10       -12.2689    0.3463   -0.1834 C.3     1  RES11      -0.8466
     21 N1E        -3.8900   -3.8900   -3.8900 N.3     1  RES11      -0.2784
     22 N1H         3.8900    3.8900   -3.8900 N.3     1  RES11      -0.2784
     23 N1B         3.8900   -3.8900    3.8900 N.3     1  RES11      -0.2784
     24 N2E        -9.0583   -1.0640   -1.2091 N.3     1  RES11       0.3458
     25 N2L        -1.0640   -1.2091   -9.0583 N.3     1  RES11       0.3458
     26 N2K         1.0640    1.2091   -9.0583 N.3     1  RES11       0.3458
     27 N2M         1.2091    9.0583   -1.0640 N.3     1  RES11       0.3458
     28 N2O        -1.2091    9.0583    1.0640 N.3     1  RES11       0.3458
     29 N2N        -1.0640    1.2091    9.0583 N.3     1  RES11       0.3458
     30 N2Q         1.0640   -1.2091    9.0583 N.3     1  RES11       0.3458
     31 N2J         1.2091   -9.0583    1.0640 N.3     1  RES11       0.3458
     32 N2P        -1.2091   -9.0583   -1.0640 N.3     1  RES11       0.3458
     33 N2B         9.0583   -1.0640    1.2091 N.3     1  RES11       0.3458
     34 N2H         9.0583    1.0640   -1.2091 N.3     1  RES11       0.3458
     35 C1E        -8.1000   -0.6186   -1.8602 C.3     1  RES11      -0.1532
     36 C1L        -0.6186   -1.8602   -8.1000 C.3     1  RES11      -0.1532
     37 C1K         0.6186    1.8602   -8.1000 C.3     1  RES11      -0.1532
     38 C1M         1.8602    8.1000   -0.6186 C.3     1  RES11      -0.1532
     39 C1O        -1.8602    8.1000    0.6186 C.3     1  RES11      -0.1532
     40 C1N        -0.6186    1.8602    8.1000 C.3     1  RES11      -0.1532
     41 C1Q         0.6186   -1.8602    8.1000 C.3     1  RES11      -0.1532
     42 C1J         1.8602   -8.1000    0.6186 C.3     1  RES11      -0.1532
     43 C1P        -1.8602   -8.1000   -0.6186 C.3     1  RES11      -0.1532
     44 C1B         8.1000   -0.6186    1.8602 C.3     1  RES11      -0.1532
     45 C1H         8.1000    0.6186   -1.8602 C.3     1  RES11      -0.1532
     46 H1E        -8.0648    0.3162   -2.0267 H       1  RES11      -0.0006
     47 H1K        -0.3162    2.0267   -8.0648 H       1  RES11      -0.0006
     48 H1O        -2.0267    8.0648   -0.3162 H       1  RES11      -0.0006
     49 H1Q        -0.3162   -2.0267    8.0648 H       1  RES11      -0.0006
     50 H1P        -2.0267   -8.0648    0.3162 H       1  RES11      -0.0006
     51 H1J         2.0267   -8.0648   -0.3162 H       1  RES11      -0.0006
     52 H1H         8.0648   -0.3162   -2.0267 H       1  RES11      -0.0006
     53 H1B         8.0648    0.3162    2.0267 H       1  RES11      -0.0006
     54 H1N         0.3162    2.0267    8.0648 H       1  RES11      -0.0006
     55 H1M         2.0267    8.0648    0.3162 H       1  RES11      -0.0006
     56 H1L         0.3162   -2.0267   -8.0648 H       1  RES11      -0.0006
     57 C2E        -7.0126   -1.4651   -2.3914 C.3     1  RES11      -0.0395
     58 C2L        -1.4651   -2.3914   -7.0126 C.3     1  RES11      -0.0395
     59 C2K         1.4651    2.3914   -7.0126 C.3     1  RES11      -0.0395
     60 C2M         2.3914    7.0126   -1.4651 C.3     1  RES11      -0.0395
     61 C2O        -2.3914    7.0126    1.4651 C.3     1  RES11      -0.0395
     62 C2N        -1.4651    2.3914    7.0126 C.3     1  RES11      -0.0395
     63 C2Q         1.4651   -2.3914    7.0126 C.3     1  RES11      -0.0395
     64 C2J         2.3914   -7.0126    1.4651 C.3     1  RES11      -0.0395
     65 C2P        -2.3914   -7.0126   -1.4651 C.3     1  RES11      -0.0395
     66 C2B         7.0126   -1.4651    2.3914 C.3     1  RES11      -0.0395
     67 C2H         7.0126    1.4651   -2.3914 C.3     1  RES11      -0.0395
     68 C3E        -4.9096   -3.0537   -3.4036 C.3     1  RES11       0.0489
     69 C3L        -3.0537   -3.4036   -4.9096 C.3     1  RES11       0.0489
     70 C3K         3.0537    3.4036   -4.9096 C.3     1  RES11       0.0489
     71 C3M         3.4036    4.9096   -3.0537 C.3     1  RES11       0.0489
     72 C3O        -3.4036    4.9096    3.0537 C.3     1  RES11       0.0489
     73 C3N        -3.0537    3.4036    4.9096 C.3     1  RES11       0.0489
     74 C3Q         3.0537   -3.4036    4.9096 C.3     1  RES11       0.0489
     75 C3J         3.4036   -4.9096    3.0537 C.3     1  RES11       0.0489
     76 C3P        -3.4036   -4.9096   -3.0537 C.3     1  RES11       0.0489
     77 C3B         4.9096   -3.0537    3.4036 C.3     1  RES11       0.0489
     78 C3H         4.9096    3.0537   -3.4036 C.3     1  RES11       0.0489
     79 C4L        -1.6648   -3.4072   -4.8268 C.3     1  RES11      -0.0120
     80 C4M         3.4072    4.8268   -1.6648 C.3     1  RES11      -0.0120
     81 C4N        -1.6648    3.4072    4.8268 C.3     1  RES11      -0.0120
     82 C4J         3.4072   -4.8268    1.6648 C.3     1  RES11      -0.0120
     83 C4P        -3.4072   -4.8268   -1.6648 C.3     1  RES11      -0.0120
     84 C4B         4.8268   -1.6648    3.4072 C.3     1  RES11      -0.0120
     85 C4H         4.8268    1.6648   -3.4072 C.3     1  RES11      -0.0120
     86 C4Q         1.6648   -3.4072    4.8268 C.3     1  RES11      -0.0120
     87 C4O        -3.4072    4.8268    1.6648 C.3     1  RES11      -0.0120
     88 C4K         1.6648    3.4072   -4.8268 C.3     1  RES11      -0.0120
     89 C4E        -4.8268   -1.6648   -3.4072 C.3     1  RES11      -0.0120
     90 H2L        -1.2437   -3.7553   -4.0505 H       1  RES11       0.0326
     91 H2M         3.7553    4.0505   -1.2437 H       1  RES11       0.0326
     92 H2N        -1.2437    3.7553    4.0505 H       1  RES11       0.0326
     93 H2J         3.7553   -4.0505    1.2437 H       1  RES11       0.0326
     94 H2P        -3.7553   -4.0505   -1.2437 H       1  RES11       0.0326
     95 H2B         4.0505   -1.2437    3.7553 H       1  RES11       0.0326
     96 H2H         4.0505    1.2437   -3.7553 H       1  RES11       0.0326
     97 H2Q         1.2437   -3.7553    4.0505 H       1  RES11       0.0326
     98 H2O        -3.7553    4.0505    1.2437 H       1  RES11       0.0326
     99 H2K         1.2437    3.7553   -4.0505 H       1  RES11       0.0326
    100 H2E        -4.0505   -1.2437   -3.7553 H       1  RES11       0.0326
    101 C5E        -6.0715   -3.6280   -2.8950 C.3     1  RES11      -0.0120
    102 C5K         3.6280    2.8950   -6.0715 C.3     1  RES11      -0.0120
    103 C5O        -2.8950    6.0715    3.6280 C.3     1  RES11      -0.0120
    104 C5Q         3.6280   -2.8950    6.0715 C.3     1  RES11      -0.0120
    105 C5P        -2.8950   -6.0715   -3.6280 C.3     1  RES11      -0.0120
    106 C5J         2.8950   -6.0715    3.6280 C.3     1  RES11      -0.0120
    107 C5H         6.0715    3.6280   -2.8950 C.3     1  RES11      -0.0120
    108 C5B         6.0715   -3.6280    2.8950 C.3     1  RES11      -0.0120
    109 C5N        -3.6280    2.8950    6.0715 C.3     1  RES11      -0.0120
    110 C5M         2.8950    6.0715   -3.6280 C.3     1  RES11      -0.0120
    111 C5L        -3.6280   -2.8950   -6.0715 C.3     1  RES11      -0.0120
    112 H3P        -2.8910   -6.1555   -4.5745 H       1  RES11       0.0326
    113 H3J         2.8910   -6.1555    4.5745 H       1  RES11       0.0326
    114 H3H         6.1555    4.5745   -2.8910 H       1  RES11       0.0326
    115 H3B         6.1555   -4.5745    2.8910 H       1  RES11       0.0326
    116 H3Q         4.5745   -2.8910    6.1555 H       1  RES11       0.0326
    117 H3N        -4.5745    2.8910    6.1555 H       1  RES11       0.0326
    118 H3O        -2.8910    6.1555    4.5745 H       1  RES11       0.0326
    119 H3M         2.8910    6.1555   -4.5745 H       1  RES11       0.0326
    120 H3K         4.5745    2.8910   -6.1555 H       1  RES11       0.0326
    121 H3L        -4.5745   -2.8910   -6.1555 H       1  RES11       0.0326
    122 H3E        -6.1555   -4.5745   -2.8910 H       1  RES11       0.0326
    123 C6E        -7.1014   -2.8594   -2.3981 C.3     1  RES11      -0.0280
    124 C6K         2.8594    2.3981   -7.1014 C.3     1  RES11      -0.0280
    125 C6O        -2.3981    7.1014    2.8594 C.3     1  RES11      -0.0280
    126 C6Q         2.8594   -2.3981    7.1014 C.3     1  RES11      -0.0280
    127 C6P        -2.3981   -7.1014   -2.8594 C.3     1  RES11      -0.0280
    128 C6J         2.3981   -7.1014    2.8594 C.3     1  RES11      -0.0280
    129 C6H         7.1014    2.8594   -2.3981 C.3     1  RES11      -0.0280
    130 C6B         7.1014   -2.8594    2.3981 C.3     1  RES11      -0.0280
    131 C6N        -2.8594    2.3981    7.1014 C.3     1  RES11      -0.0280
    132 C6M         2.3981    7.1014   -2.8594 C.3     1  RES11      -0.0280
    133 C6L        -2.8594   -2.3981   -7.1014 C.3     1  RES11      -0.0280
    134 H4P        -2.0569   -7.8811   -3.2825 H       1  RES11       0.0312
    135 H4J         2.0569   -7.8811    3.2825 H       1  RES11       0.0312
    136 H4H         7.8811    3.2825   -2.0569 H       1  RES11       0.0312
    137 H4B         7.8811   -3.2825    2.0569 H       1  RES11       0.0312
    138 H4Q         3.2825   -2.0569    7.8811 H       1  RES11       0.0312
    139 H4N        -3.2825    2.0569    7.8811 H       1  RES11       0.0312
    140 H4O        -2.0569    7.8811    3.2825 H       1  RES11       0.0312
    141 H4M         2.0569    7.8811   -3.2825 H       1  RES11       0.0312
    142 H4K         3.2825    2.0569   -7.8811 H       1  RES11       0.0312
    143 H4L        -3.2825   -2.0569   -7.8811 H       1  RES11       0.0312
    144 H4E        -7.8811   -3.2825   -2.0569 H       1  RES11       0.0312
    145 C7E       -10.0581   -0.0973   -0.7743 C.3     1  RES11      -0.3333
    146 C7L        -0.0973   -0.7743  -10.0581 C.3     1  RES11      -0.3333
    147 C7K         0.0973    0.7743  -10.0581 C.3     1  RES11      -0.3333
    148 C7M         0.7743   10.0581   -0.0973 C.3     1  RES11      -0.3333
    149 C7O        -0.7743   10.0581    0.0973 C.3     1  RES11      -0.3333
    150 C7N        -0.0973    0.7743   10.0581 C.3     1  RES11      -0.3333
    151 C7Q         0.0973   -0.7743   10.0581 C.3     1  RES11      -0.3333
    152 C7J         0.7743  -10.0581    0.0973 C.3     1  RES11      -0.3333
    153 C7P        -0.7743  -10.0581   -0.0973 C.3     1  RES11      -0.3333
    154 C7B        10.0581   -0.0973    0.7743 C.3     1  RES11      -0.3333
    155 C7H        10.0581    0.0973   -0.7743 C.3     1  RES11      -0.3333
    156 H5P        -1.2227   -9.8928    0.7800 H       1  RES11      -0.0375
    157 H5J         1.2227   -9.8928   -0.7800 H       1  RES11      -0.0375
    158 H5H         9.8928   -0.7800   -1.2227 H       1  RES11      -0.0375
    159 H5B         9.8928    0.7800    1.2227 H       1  RES11      -0.0375
    160 H5Q        -0.7800   -1.2227    9.8928 H       1  RES11      -0.0375
    161 H5N         0.7800    1.2227    9.8928 H       1  RES11      -0.0375
    162 H5O        -1.2227    9.8928   -0.7800 H       1  RES11      -0.0375
    163 H5M         1.2227    9.8928    0.7800 H       1  RES11      -0.0375
    164 H5K        -0.7800    1.2227   -9.8928 H       1  RES11      -0.0375
    165 H5L         0.7800   -1.2227   -9.8928 H       1  RES11      -0.0375
    166 H5E        -9.8928    0.7800   -1.2227 H       1  RES11      -0.0375
    167 C8L        -0.8926   -2.9157   -5.8547 C.3     1  RES11      -0.0280
    168 C8M         2.9157    5.8547   -0.8926 C.3     1  RES11      -0.0280
    169 C8N        -0.8926    2.9157    5.8547 C.3     1  RES11      -0.0280
    170 C8J         2.9157   -5.8547    0.8926 C.3     1  RES11      -0.0280
    171 C8P        -2.9157   -5.8547   -0.8926 C.3     1  RES11      -0.0280
    172 C8B         5.8547   -0.8926    2.9157 C.3     1  RES11      -0.0280
    173 C8H         5.8547    0.8926   -2.9157 C.3     1  RES11      -0.0280
    174 C8Q         0.8926   -2.9157    5.8547 C.3     1  RES11      -0.0280
    175 C8O        -2.9157    5.8547    0.8926 C.3     1  RES11      -0.0280
    176 C8K         0.8926    2.9157   -5.8547 C.3     1  RES11      -0.0280
    177 C8E        -5.8547   -0.8926   -2.9157 C.3     1  RES11      -0.0280
    178 H6P        -2.9332   -5.7730    0.0542 H       1  RES11       0.0312
    179 H6J         2.9332   -5.7730   -0.0542 H       1  RES11       0.0312
    180 H6H         5.7730   -0.0542   -2.9332 H       1  RES11       0.0312
    181 H6B         5.7730    0.0542    2.9332 H       1  RES11       0.0312
    182 H6Q        -0.0542   -2.9332    5.7730 H       1  RES11       0.0312
    183 H6N         0.0542    2.9332    5.7730 H       1  RES11       0.0312
    184 H6O        -2.9332    5.7730   -0.0542 H       1  RES11       0.0312
    185 H6M         2.9332    5.7730    0.0542 H       1  RES11       0.0312
    186 H6K        -0.0542    2.9332   -5.7730 H       1  RES11       0.0312
    187 H6L         0.0542   -2.9332   -5.7730 H       1  RES11       0.0312
    188 H6E        -5.7730    0.0542   -2.9332 H       1  RES11       0.0312
    189 C9P        -1.0607  -11.4726   -0.5562 C.3     1  RES11      -0.4965
    190 C9J         1.0607  -11.4726    0.5562 C.3     1  RES11      -0.4965
    191 C9H        11.4726    0.5562   -1.0607 C.3     1  RES11      -0.4965
    192 C9B        11.4726   -0.5562    1.0607 C.3     1  RES11      -0.4965
    193 C9Q         0.5562   -1.0607   11.4726 C.3     1  RES11      -0.4965
    194 C9N        -0.5562    1.0607   11.4726 C.3     1  RES11      -0.4965
    195 C9O        -1.0607   11.4726    0.5562 C.3     1  RES11      -0.4965
    196 C9M         1.0607   11.4726   -0.5562 C.3     1  RES11      -0.4965
    197 C9K         0.5562    1.0607  -11.4726 C.3     1  RES11      -0.4965
    198 C9L        -0.5562   -1.0607  -11.4726 C.3     1  RES11      -0.4965
    199 C9E       -11.4726   -0.5562   -1.0607 C.3     1  RES11      -0.4965
    200 H7P        -1.8069  -11.8593   -0.0331 H       1  RES11      -0.2210
    201 H7J         1.8069  -11.8593    0.0331 H       1  RES11      -0.2210
    202 H7H        11.8593    0.0331   -1.8069 H       1  RES11      -0.2210
    203 H7B        11.8593   -0.0331    1.8069 H       1  RES11      -0.2210
    204 H7Q         0.0331   -1.8069   11.8593 H       1  RES11      -0.2210
    205 H7N        -0.0331    1.8069   11.8593 H       1  RES11      -0.2210
    206 H7O        -1.8069   11.8593    0.0331 H       1  RES11      -0.2210
    207 H7M         1.8069   11.8593   -0.0331 H       1  RES11      -0.2210
    208 H7K         0.0331    1.8069  -11.8593 H       1  RES11      -0.2210
    209 H7L        -0.0331   -1.8069  -11.8593 H       1  RES11      -0.2210
    210 H7E       -11.8593   -0.0331   -1.8069 H       1  RES11      -0.2210
    211 H8P        -1.3130  -11.4768   -1.5148 H       1  RES11      -0.2210
    212 H8J         1.3130  -11.4768    1.5148 H       1  RES11      -0.2210
    213 H8H        11.4768    1.5148   -1.3130 H       1  RES11      -0.2210
    214 H8B        11.4768   -1.5148    1.3130 H       1  RES11      -0.2210
    215 H8Q         1.5148   -1.3130   11.4768 H       1  RES11      -0.2210
    216 H8N        -1.5148    1.3130   11.4768 H       1  RES11      -0.2210
    217 H8O        -1.3130   11.4768    1.5148 H       1  RES11      -0.2210
    218 H8M         1.3130   11.4768   -1.5148 H       1  RES11      -0.2210
    219 H8K         1.5148    1.3130  -11.4768 H       1  RES11      -0.2210
    220 H8L        -1.5148   -1.3130  -11.4768 H       1  RES11      -0.2210
    221 H8E       -11.4768   -1.5148   -1.3130 H       1  RES11      -0.2210
    222 C10P        0.1834  -12.2689   -0.3463 C.3     1  RES11      -0.8466
    223 C10J       -0.1834  -12.2689    0.3463 C.3     1  RES11      -0.8466
    224 C10H       12.2689    0.3463    0.1834 C.3     1  RES11      -0.8466
    225 C10B       12.2689   -0.3463   -0.1834 C.3     1  RES11      -0.8466
    226 C10Q        0.3463    0.1834   12.2689 C.3     1  RES11      -0.8466
    227 C10N       -0.3463   -0.1834   12.2689 C.3     1  RES11      -0.8466
    228 C10O        0.1834   12.2689    0.3463 C.3     1  RES11      -0.8466
    229 C10M       -0.1834   12.2689   -0.3463 C.3     1  RES11      -0.8466
    230 C10K        0.3463   -0.1834  -12.2689 C.3     1  RES11      -0.8466
    231 C10L       -0.3463    0.1834  -12.2689 C.3     1  RES11      -0.8466
    232 C10E      -12.2689   -0.3463    0.1834 C.3     1  RES11      -0.8466
@<TRIPOS>BOND
     1     1     6    1
     2     2     3    0
     3     3     4    1
     4     5     3    0
     5     6     7    0
     6     7     8    1
     7     9     6    0
     8    10     9    1
     9    11     5    0
    10    12    11    1
    11    13     2    1
    12    14    13    1
    13    15     5    0
    14    16    15    1
    15    17    13    1
    16    18    17    1
    17    19    17    1
    18    20    17    1
    19    21    68    1
    20    22    70    1
    21    23    74    1
    22    24    35    0
    23    25    36    0
    24    26    37    0
    25    27    38    0
    26    28    39    0
    27    29    40    0
    28    30    41    0
    29    31    42    0
    30    32    43    0
    31    33    44    0
    32    34    45    0
    33    35    46    1
    34    36    56    1
    35    37    47    1
    36    38    55    1
    37    39    48    1
    38    40    54    1
    39    41    49    1
    40    42    51    1
    41    43    50    1
    42    44    53    1
    43    45    52    1
    44    57    35    0
    45    58    36    0
    46    59    37    0
    47    60    38    0
    48    61    39    0
    49    62    40    0
    50    63    41    0
    51    64    42    0
    52    65    43    0
    53    66    44    0
    54    67    45    0
    55    68    89    0
    56    69    21    1
    57    70    88    0
    58    71    22    1
    59    72     1    1
    60    73     1    1
    61    74    86    0
    62    75    23    1
    63    76    21    1
    64    77    23    1
    65    78    22    1
    66    79    69    0
    67    80    71    0
    68    81    73    0
    69    82    75    0
    70    83    76    0
    71    84    77    0
    72    85    78    0
    73    86    97    1
    74    87    72    0
    75    88    99    1
    76    89   100    1
    77    90    79    1
    78    91    80    1
    79    92    81    1
    80    93    82    1
    81    94    83    1
    82    95    84    1
    83    96    85    1
    84    98    87    1
    85   101    68    0
    86   102    70    0
    87   103    72    0
    88   104    74    0
    89   105    76    0
    90   106    75    0
    91   107    78    0
    92   108    77    0
    93   109    73    0
    94   110    71    0
    95   111    69    0
    96   112   105    1
    97   113   106    1
    98   114   107    1
    99   115   108    1
   100   116   104    1
   101   117   109    1
   102   118   103    1
   103   119   110    1
   104   120   102    1
   105   121   111    1
   106   122   101    1
   107   123    57    0
   108   124    59    0
   109   125    61    0
   110   126    63    0
   111   127    65    0
   112   128    64    0
   113   129    67    0
   114   130    66    0
   115   131    62    0
   116   132    60    0
   117   133    58    0
   118   134   127    1
   119   135   128    1
   120   136   129    1
   121   137   130    1
   122   138   126    1
   123   139   131    1
   124   140   125    1
   125   141   132    1
   126   142   124    1
   127   143   133    1
   128   144   123    1
   129   145    13    1
   130   146    25    1
   131   147    26    1
   132   148    27    1
   133   149    28    1
   134   150    29    1
   135   151    30    1
   136   152    31    1
   137   153    32    1
   138   154    33    1
   139   155    34    1
   140   156   153    1
   141   157   152    1
   142   158   155    1
   143   159   154    1
   144   160   151    1
   145   161   150    1
   146   162   149    1
   147   163   148    1
   148   164   147    1
   149   165   146    1
   150   166   145    1
   151   167    58    0
   152   168    60    0
   153   169    62    0
   154   170    64    0
   155   171    65    0
   156   172    66    0
   157   173    67    0
   158   174    63    0
   159   175    61    0
   160   176    59    0
   161   177    57    0
   162   178   171    1
   163   179   170    1
   164   180   173    1
   165   181   172    1
   166   182   174    1
   167   183   169    1
   168   184   175    1
   169   185   168    1
   170   186   176    1
   171   187   167    1
   172   188   177    1
   173   189   153    1
   174   190   152    1
   175   191   155    1
   176   192   154    1
   177   193   151    1
   178   194   150    1
   179   195   149    1
   180   196   148    1
   181   197   147    1
   182   198   146    1
   183   199    20    1
   184   200   189    1
   185   201   190    1
   186   202   191    1
   187   203   192    1
   188   204   193    1
   189   205   194    1
   190   206   195    1
   191   207   196    1
   192   208   197    1
   193   209   198    1
   194   210   199    1
   195   211   189    1
   196   212   190    1
   197   213   191    1
   198   214   192    1
   199   215   193    1
   200   216   194    1
   201   217   195    1
   202   218   196    1
   203   219   197    1
   204   220   198    1
   205   221   199    1
   206   222   189    1
   207   223   189    1
   208   224   191    1
   209   225   191    1
   210   226   193    1
   211   227   193    1
   212   228   195    1
   213   229   195    1
   214   230   197    1
   215   231   197    1
   216   232    17    1
   217     7    15    0
   218     9    11    0
   219    20   232    1
   220    24   145    1
   221    79   167    0
   222    80   168    0
   223    81   169    0
   224    82   170    0
   225    83   171    0
   226    84   172    0
   227    85   173    0
   228    86   174    0
   229    87   175    0
   230    88   176    0
   231    89   177    0
   232   101   123    0
   233   102   124    0
   234   103   125    0
   235   104   126    0
   236   105   127    0
   237   106   128    0
   238   107   129    0
   239   108   130    0
   240   109   131    0
   241   110   132    0
   242   111   133    0
   243   145   199    1
   244   146   147    1
   245   148   149    1
   246   150   151    1
   247   152   153    1
   248   154   155    1
   249   190   222    1
   250   190   223    1
   251   192   224    1
   252   192   225    1
   253   194   226    1
   254   194   227    1
   255   196   228    1
   256   196   229    1
   257   198   230    1
   258   198   231    1
   259   199   232    1
   260   222   223    1
   261   224   225    1
   262   226   227    1
   263   228   229    1
   264   230   231    1
