@<TRIPOS>MOLECULE
*****
 150 162 0 0 0
SMALL
GASTEIGER

@<TRIPOS>ATOM
      1 N5          3.3525    1.5115    4.9817 N.2     2  RES22      -0.2856
      2 N6          4.7807    2.5358    7.5112 N.2     2  RES22      -0.2856
      3 N7          4.4183   -1.2679   12.7165 N.2     2  RES22      -0.2856
      4 N8          2.8517   -3.8367   13.0187 N.2     2  RES22      -0.2856
      5 C23         1.0623    0.9602    5.1442 C.ar    2  RES22      -0.0062
      6 C24         1.2768   -0.4357    5.1268 C.ar    2  RES22      -0.0445
      7 H25         2.1770   -0.7351    5.0984 H       2  RES22       0.0630
      8 C25         2.1603    1.8915    5.1246 C.2     2  RES22       0.0297
      9 H26         1.9802    2.8187    5.2217 H       2  RES22       0.0831
     10 C26         4.0690    1.7697    9.6972 C.ar    2  RES22      -0.0062
     11 C27         3.4729    2.9343   10.0463 C.ar    2  RES22      -0.0445
     12 H27         3.4455    3.6632    9.4365 H       2  RES22       0.0630
     13 C28         2.8887    3.0541   11.3225 C.ar    2  RES22      -0.0062
     14 C29         2.9817    1.9266   12.1330 C.ar    2  RES22      -0.0445
     15 H28         2.5895    1.9700   12.9969 H       2  RES22       0.0630
     16 C30         3.5730    0.8074   11.7926 C.ar    2  RES22      -0.0062
     17 C31         4.1441    0.6897   10.5459 C.ar    2  RES22      -0.0445
     18 H29         4.5745   -0.1136   10.2786 H       2  RES22       0.0630
     19 C32         4.6913    1.5714    8.3293 C.2     2  RES22       0.0297
     20 H30         5.0168    0.7145    8.0806 H       2  RES22       0.0831
     21 C33         3.6243   -0.3015   12.7787 C.2     2  RES22       0.0297
     22 H31         3.0127   -0.2746   13.5063 H       2  RES22       0.0831
     23 C34         2.5585   -4.0184   11.7545 C.2     2  RES22       0.0297
     24 H32         3.2571   -4.1423   11.1218 H       2  RES22       0.0831
     25 C35         4.3551    2.5750    5.0973 C.3     2  RES22       0.0730
     26 H33         3.9271    3.4609    5.2675 H       2  RES22       0.0565
     27 C36         5.3649    2.2301    6.1870 C.3     2  RES22       0.0730
     28 H34         5.6165    1.2617    6.1347 H       2  RES22       0.0565
     29 C37         6.5702    3.0954    5.8947 C.3     2  RES22      -0.0285
     30 H35         7.3833    2.7443    6.3343 H       2  RES22       0.0286
     31 H36         6.4212    4.0308    6.1837 H       2  RES22       0.0286
     32 C38         6.6656    2.9880    4.3774 C.3     2  RES22      -0.0491
     33 H37         7.3225    2.2921    4.1265 H       2  RES22       0.0267
     34 H38         6.9636    3.8511    3.9945 H       2  RES22       0.0267
     35 C39         5.2683    2.6204    3.8298 C.3     2  RES22      -0.0285
     36 H39         5.2874    1.7408    3.3771 H       2  RES22       0.0286
     37 H40         4.9476    3.3039    3.1895 H       2  RES22       0.0286
     38 C40         4.3289   -2.2157   13.8521 C.3     2  RES22       0.0730
     39 H41         3.5289   -1.9824   14.4073 H       2  RES22       0.0565
     40 C41         4.2180   -3.6054   13.4190 C.3     2  RES22       0.0730
     41 H42         4.8511   -3.8016   12.6707 H       2  RES22       0.0565
     42 C42         4.5876   -4.4190   14.7007 C.3     2  RES22      -0.0285
     43 H43         3.7769   -4.7989   15.1250 H       2  RES22       0.0286
     44 H44         5.2123   -5.1582   14.4836 H       2  RES22       0.0286
     45 C43         5.2493   -3.4051   15.6083 C.3     2  RES22      -0.0491
     46 H45         6.0850   -3.7706   15.9900 H       2  RES22       0.0267
     47 H46         4.6436   -3.1532   16.3500 H       2  RES22       0.0267
     48 C44         5.5461   -2.1930   14.7160 C.3     2  RES22      -0.0285
     49 H47         5.6093   -1.3567   15.2417 H       2  RES22       0.0286
     50 H48         6.3747   -2.3189   14.1891 H       2  RES22       0.0286
     51 N5A        -2.9853    2.1475    4.9817 N.2     2  RES22      -0.2856
     52 N5B        -0.3672   -3.6591    4.9817 N.2     2  RES22      -0.2856
     53 N6A        -4.5864    2.8723    7.5112 N.2     2  RES22      -0.2856
     54 N6B        -0.1943   -5.4081    7.5112 N.2     2  RES22      -0.2856
     55 N7A        -1.1111    4.4603   12.7165 N.2     2  RES22      -0.2856
     56 N7B        -3.3072   -3.1924   12.7165 N.2     2  RES22      -0.2856
     57 N8A         1.8968    4.3880   13.0187 N.2     2  RES22      -0.2856
     58 N8B        -4.7485   -0.5513   13.0187 N.2     2  RES22      -0.2856
     59 C23A       -1.3627    0.4398    5.1442 C.ar    2  RES22      -0.0062
     60 C23B        0.3004   -1.4000    5.1442 C.ar    2  RES22      -0.0062
     61 C24A       -0.2611    1.3236    5.1268 C.ar    2  RES22      -0.0445
     62 C24B       -1.0158   -0.8879    5.1268 C.ar    2  RES22      -0.0445
     63 H25A       -0.4518    2.2529    5.0984 H       2  RES22       0.0630
     64 H25B       -1.7251   -1.5177    5.0984 H       2  RES22       0.0630
     65 C25A       -2.7182    0.9251    5.1246 C.2     2  RES22       0.0297
     66 C25B        0.5579   -2.8166    5.1246 C.2     2  RES22       0.0297
     67 H26A       -3.4312    0.3056    5.2217 H       2  RES22       0.0831
     68 H26B        1.4509   -3.1243    5.2217 H       2  RES22       0.0831
     69 C26A       -3.5671    2.6390    9.6972 C.ar    2  RES22      -0.0062
     70 C26B       -0.5019   -4.4087    9.6972 C.ar    2  RES22      -0.0062
     71 C27A       -4.2776    1.5405   10.0463 C.ar    2  RES22      -0.0445
     72 C27B        0.8047   -4.4747   10.0463 C.ar    2  RES22      -0.0445
     73 H27A       -4.8952    1.1522    9.4365 H       2  RES22       0.0630
     74 H27B        1.4497   -4.8155    9.4365 H       2  RES22       0.0630
     75 C28A       -4.0892    0.9747   11.3225 C.ar    2  RES22      -0.0062
     76 C28B        1.2005   -4.0287   11.3225 C.ar    2  RES22      -0.0062
     77 C29A       -3.1593    1.6189   12.1330 C.ar    2  RES22      -0.0445
     78 C29B        0.1776   -3.5455   12.1330 C.ar    2  RES22      -0.0445
     79 H28A       -3.0008    1.2576   12.9969 H       2  RES22       0.0630
     80 H28B        0.4113   -3.2275   12.9969 H       2  RES22       0.0630
     81 C30A       -2.4857    2.6906   11.7926 C.ar    2  RES22      -0.0062
     82 C30B       -1.0873   -3.4980   11.7926 C.ar    2  RES22      -0.0062
     83 C31A       -2.6693    3.2440   10.5459 C.ar    2  RES22      -0.0445
     84 C31B       -1.4748   -3.9337   10.5459 C.ar    2  RES22      -0.0445
     85 H29A       -2.1889    4.0184   10.2786 H       2  RES22       0.0630
     86 H29B       -2.3856   -3.9048   10.2786 H       2  RES22       0.0630
     87 C32A       -3.7065    3.2771    8.3293 C.2     2  RES22       0.0297
     88 C32B       -0.9848   -4.8485    8.3293 C.2     2  RES22       0.0297
     89 H30A       -3.1271    3.9874    8.0806 H       2  RES22       0.0831
     90 H30B       -1.8896   -4.7019    8.0806 H       2  RES22       0.0831
     91 C33A       -1.5511    3.2895   12.7787 C.2     2  RES22       0.0297
     92 C33B       -2.0732   -2.9880   12.7787 C.2     2  RES22       0.0297
     93 H31A       -1.2685    2.7464   13.5063 H       2  RES22       0.0831
     94 H31B       -1.7442   -2.4717   13.5063 H       2  RES22       0.0831
     95 C34A        2.2008    4.2249   11.7545 C.2     2  RES22       0.0297
     96 C34B       -4.7593   -0.2065   11.7545 C.2     2  RES22       0.0297
     97 H32A        1.9588    4.8919   11.1218 H       2  RES22       0.0831
     98 H32B       -5.2159   -0.7496   11.1218 H       2  RES22       0.0831
     99 C35A       -4.4076    2.4841    5.0973 C.3     2  RES22       0.0730
    100 C35B        0.0525   -5.0591    5.0973 C.3     2  RES22       0.0730
    101 H33A       -4.9607    1.6705    5.2675 H       2  RES22       0.0565
    102 H33B        1.0336   -5.1314    5.2675 H       2  RES22       0.0565
    103 C36A       -4.6138    3.5311    6.1870 C.3     2  RES22       0.0730
    104 C36B       -0.7511   -5.7612    6.1870 C.3     2  RES22       0.0730
    105 H34A       -3.9009    4.2331    6.1347 H       2  RES22       0.0565
    106 H34B       -1.7156   -5.4948    6.1347 H       2  RES22       0.0565
    107 C37A       -5.9658    4.1423    5.8947 C.3     2  RES22      -0.0285
    108 C37B       -0.6044   -7.2377    5.8947 C.3     2  RES22      -0.0285
    109 H35A       -6.0683    5.0220    6.3343 H       2  RES22       0.0286
    110 H35B       -1.3150   -7.7663    6.3343 H       2  RES22       0.0286
    111 H36A       -6.7014    3.5455    6.1837 H       2  RES22       0.0286
    112 H36B        0.2802   -7.5763    6.1837 H       2  RES22       0.0286
    113 C38A       -5.9205    4.2786    4.3774 C.3     2  RES22      -0.0491
    114 C38B       -0.7451   -7.2666    4.3774 C.3     2  RES22      -0.0491
    115 H37A       -5.6463    5.1954    4.1265 H       2  RES22       0.0267
    116 H37B       -1.6762   -7.4875    4.1265 H       2  RES22       0.0267
    117 H38A       -6.8170    4.1051    3.9945 H       2  RES22       0.0267
    118 H38B       -0.1466   -7.9563    3.9945 H       2  RES22       0.0267
    119 C39A       -4.9035    3.2523    3.8298 C.3     2  RES22      -0.0285
    120 C39B       -0.3648   -5.8727    3.8298 C.3     2  RES22      -0.0285
    121 H39A       -4.1512    3.7087    3.3771 H       2  RES22       0.0286
    122 H39B       -1.1362   -5.4494    3.3771 H       2  RES22       0.0286
    123 H40A       -5.3351    2.6328    3.1895 H       2  RES22       0.0286
    124 H40B        0.3875   -5.9367    3.1895 H       2  RES22       0.0286
    125 C40A       -0.2456    4.8568   13.8521 C.3     2  RES22       0.0730
    126 C40B       -4.0833   -2.6411   13.8521 C.3     2  RES22       0.0730
    127 H41A       -0.0477    4.0473   14.4073 H       2  RES22       0.0565
    128 H41B       -3.4812   -2.0650   14.4073 H       2  RES22       0.0565
    129 C41A        1.0134    5.4556   13.4190 C.3     2  RES22       0.0730
    130 C41B       -5.2314   -1.8502   13.4190 C.3     2  RES22       0.0730
    131 H42A        0.8667    6.1019   12.6707 H       2  RES22       0.0565
    132 H42B       -5.7178   -2.3004   12.6707 H       2  RES22       0.0565
    133 C42A        1.5332    6.1825   14.7007 C.3     2  RES22      -0.0285
    134 C42B       -6.1208   -1.7635   14.7007 C.3     2  RES22      -0.0285
    135 H43A        2.2676    5.6704   15.1250 H       2  RES22       0.0286
    136 H43B       -6.0445   -0.8714   15.1250 H       2  RES22       0.0286
    137 H44A        1.8610    7.0931   14.4836 H       2  RES22       0.0286
    138 H44B       -7.0733   -1.9349   14.4836 H       2  RES22       0.0286
    139 C43A        0.3243    6.2485   15.6083 C.3     2  RES22      -0.0491
    140 C43B       -5.5735   -2.8434   15.6083 C.3     2  RES22      -0.0491
    141 H45A        0.2229    7.1551   15.9900 H       2  RES22       0.0267
    142 H45B       -6.3079   -3.3845   15.9900 H       2  RES22       0.0267
    143 H46A        0.4089    5.5981   16.3500 H       2  RES22       0.0267
    144 H46B       -5.0525   -2.4449   16.3500 H       2  RES22       0.0267
    145 C44A       -0.8739    5.8996   14.7160 C.3     2  RES22      -0.0285
    146 C44B       -4.6722   -3.7066   14.7160 C.3     2  RES22      -0.0285
    147 H47A       -1.6297    5.5361   15.2417 H       2  RES22       0.0286
    148 H47B       -3.9796   -4.1795   15.2417 H       2  RES22       0.0286
    149 H48A       -1.1791    6.6801   14.1891 H       2  RES22       0.0286
    150 H48B       -5.1956   -4.3612   14.1891 H       2  RES22       0.0286
@<TRIPOS>BOND
     1     1     8    2
     2     2    19    2
     3     3    21    2
     4     4    23    2
     5     5     6   ar
     6     6     7    1
     7     8     5    1
     8     9     8    1
     9    10    11   ar
    10    11    12    1
    11    13    11   ar
    12    14    13   ar
    13    15    14    1
    14    16    14   ar
    15    17    10   ar
    16    18    17    1
    17    19    10    1
    18    20    19    1
    19    21    16    1
    20    22    21    1
    21    23    24    1
    22    25     1    1
    23    26    25    1
    24    27     2    1
    25    28    27    1
    26    29    27    1
    27    30    29    1
    28    31    29    1
    29    32    29    1
    30    33    32    1
    31    34    32    1
    32    35    25    1
    33    36    35    1
    34    37    35    1
    35    38     3    1
    36    39    38    1
    37    40     4    1
    38    41    40    1
    39    42    40    1
    40    43    42    1
    41    44    42    1
    42    45    42    1
    43    46    45    1
    44    47    45    1
    45    48    38    1
    46    49    48    1
    47    50    48    1
    48    51    65    2
    49    52    66    2
    50    53    87    2
    51    54    88    2
    52    55    91    2
    53    56    92    2
    54    57    95    2
    55    58    96    2
    56    59    61   ar
    57    60     6   ar
    58    61     5   ar
    59    62    59   ar
    60    63    61    1
    61    64    62    1
    62    65    59    1
    63    66    60    1
    64    67    65    1
    65    68    66    1
    66    69    71   ar
    67    70    72   ar
    68    71    73    1
    69    72    74    1
    70    75    71   ar
    71    76    23    1
    72    77    75   ar
    73    78    76   ar
    74    79    77    1
    75    80    78    1
    76    81    77   ar
    77    82    78   ar
    78    83    69   ar
    79    84    70   ar
    80    85    83    1
    81    86    84    1
    82    87    69    1
    83    88    70    1
    84    89    87    1
    85    90    88    1
    86    91    81    1
    87    92    82    1
    88    93    91    1
    89    94    92    1
    90    95    13    1
    91    96    75    1
    92    97    95    1
    93    98    96    1
    94    99    51    1
    95   100    52    1
    96   101    99    1
    97   102   100    1
    98   103    53    1
    99   104    54    1
   100   105   103    1
   101   106   104    1
   102   107   103    1
   103   108   104    1
   104   109   107    1
   105   110   108    1
   106   111   107    1
   107   112   108    1
   108   113   107    1
   109   114   108    1
   110   115   113    1
   111   116   114    1
   112   117   113    1
   113   118   114    1
   114   119    99    1
   115   120   100    1
   116   121   119    1
   117   122   120    1
   118   123   119    1
   119   124   120    1
   120   125    55    1
   121   126    56    1
   122   127   125    1
   123   128   126    1
   124   129    57    1
   125   130    58    1
   126   131   129    1
   127   132   130    1
   128   133   129    1
   129   134   130    1
   130   135   133    1
   131   136   134    1
   132   137   133    1
   133   138   134    1
   134   139   133    1
   135   140   134    1
   136   141   139    1
   137   142   140    1
   138   143   139    1
   139   144   140    1
   140   145   125    1
   141   146   126    1
   142   147   145    1
   143   148   146    1
   144   149   145    1
   145   150   146    1
   146    16    17   ar
   147    25    27    1
   148    32    35    1
   149    38    40    1
   150    45    48    1
   151    60    62   ar
   152    72    76   ar
   153    81    83   ar
   154    82    84   ar
   155    99   103    1
   156   100   104    1
   157   113   119    1
   158   114   120    1
   159   125   129    1
   160   126   130    1
   161   139   145    1
   162   140   146    1
