@<TRIPOS>MOLECULE
*****
 150 162 0 0 0
SMALL
GASTEIGER

@<TRIPOS>ATOM
      1 N5          3.3709    1.5062    5.0476 N.2     2  RES22      -0.2856
      2 N6          4.8029    2.5369    7.5845 N.2     2  RES22      -0.2856
      3 N7          4.4957   -1.2926   12.7649 N.2     2  RES22      -0.2856
      4 N8          2.8605   -3.8525   13.0260 N.2     2  RES22      -0.2856
      5 C23         1.0789    0.8966    5.1815 C.ar    2  RES22      -0.0062
      6 C24         1.2978   -0.4923    5.1584 C.ar    2  RES22      -0.0445
      7 H25         2.1686   -0.8191    5.1255 H       2  RES22       0.0630
      8 C25         2.1795    1.8477    5.1913 C.2     2  RES22       0.0297
      9 H26         1.9872    2.7506    5.3098 H       2  RES22       0.0831
     10 C26         4.1075    1.7765    9.7440 C.ar    2  RES22      -0.0062
     11 C27         3.4809    2.9538   10.1270 C.ar    2  RES22      -0.0445
     12 H27         3.4326    3.6745    9.5421 H       2  RES22       0.0630
     13 C28         2.9367    3.0334   11.3867 C.ar    2  RES22      -0.0062
     14 C29         2.9887    1.9420   12.2272 C.ar    2  RES22      -0.0445
     15 H28         2.5617    1.9818   13.0524 H       2  RES22       0.0630
     16 C30         3.6527    0.8003   11.8750 C.ar    2  RES22      -0.0062
     17 C31         4.2175    0.7018   10.6317 C.ar    2  RES22      -0.0445
     18 H29         4.6663   -0.0712   10.3805 H       2  RES22       0.0630
     19 C32         4.7255    1.6110    8.4097 C.2     2  RES22       0.0297
     20 H30         5.0678    0.7793    8.1771 H       2  RES22       0.0831
     21 C33         3.7168   -0.3121   12.8505 C.2     2  RES22       0.0297
     22 H31         3.1399   -0.2807   13.5791 H       2  RES22       0.0831
     23 C34         2.5714   -4.0222   11.8190 C.2     2  RES22       0.0297
     24 H32         3.2511   -4.1270   11.1925 H       2  RES22       0.0831
     25 C35         4.4098    2.5181    5.1661 C.3     2  RES22       0.0730
     26 H33         4.0059    3.3980    5.3208 H       2  RES22       0.0565
     27 C36         5.3992    2.1871    6.2875 C.3     2  RES22       0.0730
     28 H34         5.6387    1.2360    6.2645 H       2  RES22       0.0565
     29 C37         6.6099    3.0481    5.9627 C.3     2  RES22      -0.0285
     30 H35         6.4986    3.9489    6.3062 H       2  RES22       0.0286
     31 H36         7.4191    2.6647    6.3347 H       2  RES22       0.0286
     32 C38         6.6523    3.0460    4.4605 C.3     2  RES22      -0.0491
     33 H37         6.8325    3.9405    4.1346 H       2  RES22       0.0267
     34 H38         7.3622    2.4615    4.1522 H       2  RES22       0.0267
     35 C39         5.3424    2.5705    3.9382 C.3     2  RES22      -0.0285
     36 H39         5.4319    1.6906    3.5388 H       2  RES22       0.0286
     37 H40         4.9977    3.1843    3.2711 H       2  RES22       0.0286
     38 C40         4.3941   -2.2437   13.8896 C.3     2  RES22       0.0730
     39 H41         3.6237   -1.9985   14.4449 H       2  RES22       0.0565
     40 C41         4.2417   -3.6431   13.4463 C.3     2  RES22       0.0730
     41 H42         4.8622   -3.8463   12.7155 H       2  RES22       0.0565
     42 C42         4.5816   -4.4664   14.6939 C.3     2  RES22      -0.0285
     43 H43         5.1089   -5.2457   14.4591 H       2  RES22       0.0286
     44 H44         3.7724   -4.7576   15.1438 H       2  RES22       0.0286
     45 C43         5.3907   -3.5090   15.5882 C.3     2  RES22      -0.0491
     46 H45         4.8900   -3.2869   16.3893 H       2  RES22       0.0267
     47 H46         6.2326   -3.9154   15.8483 H       2  RES22       0.0267
     48 C44         5.6314   -2.2709   14.7477 C.3     2  RES22      -0.0285
     49 H47         5.6992   -1.4748   15.2986 H       2  RES22       0.0286
     50 H48         6.4333   -2.3568   14.2100 H       2  RES22       0.0286
     51 N5A        -2.9899    2.1661    5.0476 N.2     2  RES22      -0.2856
     52 N5B        -0.3810   -3.6724    5.0476 N.2     2  RES22      -0.2856
     53 N6A        -4.5985    2.8910    7.5845 N.2     2  RES22      -0.2856
     54 N6B        -0.2044   -5.4279    7.5845 N.2     2  RES22      -0.2856
     55 N7A        -1.1285    4.5397   12.7649 N.2     2  RES22      -0.2856
     56 N7B        -3.3672   -3.2471   12.7649 N.2     2  RES22      -0.2856
     57 N8A         1.9062    4.4035   13.0260 N.2     2  RES22      -0.2856
     58 N8B        -4.7666   -0.5510   13.0260 N.2     2  RES22      -0.2856
     59 C23A       -1.3159    0.4860    5.1815 C.ar    2  RES22      -0.0062
     60 C23B        0.2371   -1.3826    5.1815 C.ar    2  RES22      -0.0062
     61 C24A       -0.2225    1.3701    5.1584 C.ar    2  RES22      -0.0445
     62 C24B       -1.0752   -0.8778    5.1584 C.ar    2  RES22      -0.0445
     63 H25A       -0.3749    2.2876    5.1255 H       2  RES22       0.0630
     64 H25B       -1.7937   -1.4685    5.1255 H       2  RES22       0.0630
     65 C25A       -2.6899    0.9637    5.1913 C.2     2  RES22       0.0297
     66 C25B        0.5104   -2.8114    5.1913 C.2     2  RES22       0.0297
     67 H26A       -3.3757    0.3457    5.3098 H       2  RES22       0.0831
     68 H26B        1.3885   -3.0963    5.3098 H       2  RES22       0.0831
     69 C26A       -3.5922    2.6689    9.7440 C.ar    2  RES22      -0.0062
     70 C26B       -0.5152   -4.4454    9.7440 C.ar    2  RES22      -0.0062
     71 C27A       -4.2986    1.5377   10.1270 C.ar    2  RES22      -0.0445
     72 C27B        0.8176   -4.4915   10.1270 C.ar    2  RES22      -0.0445
     73 H27A       -4.8985    1.1354    9.5421 H       2  RES22       0.0630
     74 H27B        1.4659   -4.8099    9.5421 H       2  RES22       0.0630
     75 C28A       -4.0954    1.0265   11.3867 C.ar    2  RES22      -0.0062
     76 C28B        1.1587   -4.0599   11.3867 C.ar    2  RES22      -0.0062
     77 C29A       -3.1761    1.6173   12.2272 C.ar    2  RES22      -0.0445
     78 C29B        0.1875   -3.5593   12.2272 C.ar    2  RES22      -0.0445
     79 H28A       -2.9971    1.2276   13.0524 H       2  RES22       0.0630
     80 H28B        0.4354   -3.2094   13.0524 H       2  RES22       0.0630
     81 C30A       -2.5194    2.7632   11.8750 C.ar    2  RES22      -0.0062
     82 C30B       -1.1333   -3.5635   11.8750 C.ar    2  RES22      -0.0062
     83 C31A       -2.7165    3.3016   10.6317 C.ar    2  RES22      -0.0445
     84 C31B       -1.5010   -4.0034   10.6317 C.ar    2  RES22      -0.0445
     85 H29A       -2.2714    4.0767   10.3805 H       2  RES22       0.0630
     86 H29B       -2.3948   -4.0055   10.3805 H       2  RES22       0.0630
     87 C32A       -3.7579    3.2869    8.4097 C.2     2  RES22       0.0297
     88 C32B       -0.9676   -4.8979    8.4097 C.2     2  RES22       0.0297
     89 H30A       -3.2088    3.9992    8.1771 H       2  RES22       0.0831
     90 H30B       -1.8590   -4.7785    8.1771 H       2  RES22       0.0831
     91 C33A       -1.5881    3.3749   12.8505 C.2     2  RES22       0.0297
     92 C33B       -2.1287   -3.0628   12.8505 C.2     2  RES22       0.0297
     93 H31A       -1.3268    2.8596   13.5791 H       2  RES22       0.0831
     94 H31B       -1.8130   -2.5788   13.5791 H       2  RES22       0.0831
     95 C34A        2.1977    4.2380   11.8190 C.2     2  RES22       0.0297
     96 C34B       -4.7691   -0.2158   11.8190 C.2     2  RES22       0.0297
     97 H32A        1.9485    4.8791   11.1925 H       2  RES22       0.0831
     98 H32B       -5.1996   -0.7521   11.1925 H       2  RES22       0.0831
     99 C35A       -4.3856    2.5600    5.1661 C.3     2  RES22       0.0730
    100 C35B       -0.0242   -5.0781    5.1661 C.3     2  RES22       0.0730
    101 H33A       -4.9456    1.7702    5.3208 H       2  RES22       0.0565
    102 H33B        0.9398   -5.1682    5.3208 H       2  RES22       0.0565
    103 C36A       -4.5937    3.5823    6.2875 C.3     2  RES22       0.0730
    104 C36B       -0.8055   -5.7694    6.2875 C.3     2  RES22       0.0730
    105 H34A       -3.8898    4.2652    6.2645 H       2  RES22       0.0565
    106 H34B       -1.7489   -5.5012    6.2645 H       2  RES22       0.0565
    107 C37A       -5.9447    4.2003    5.9627 C.3     2  RES22      -0.0285
    108 C37B       -0.6652   -7.2484    5.9627 C.3     2  RES22      -0.0285
    109 H35A       -6.6692    3.6535    6.3062 H       2  RES22       0.0286
    110 H35B        0.1705   -7.6024    6.3062 H       2  RES22       0.0286
    111 H36A       -6.0173    5.0927    6.3347 H       2  RES22       0.0286
    112 H36B       -1.4018   -7.7575    6.3347 H       2  RES22       0.0286
    113 C38A       -5.9640    4.2380    4.4605 C.3     2  RES22      -0.0491
    114 C38B       -0.6882   -7.2840    4.4605 C.3     2  RES22      -0.0491
    115 H37A       -6.8288    3.9468    4.1346 H       2  RES22       0.0267
    116 H37B       -0.0036   -7.8874    4.1346 H       2  RES22       0.0267
    117 H38A       -5.8129    5.1451    4.1522 H       2  RES22       0.0267
    118 H38B       -1.5494   -7.6066    4.1522 H       2  RES22       0.0267
    119 C39A       -4.8973    3.3414    3.9382 C.3     2  RES22      -0.0285
    120 C39B       -0.4451   -5.9119    3.9382 C.3     2  RES22      -0.0285
    121 H39A       -4.1800    3.8588    3.5388 H       2  RES22       0.0286
    122 H39B       -1.2518   -5.5494    3.5388 H       2  RES22       0.0286
    123 H40A       -5.2565    2.7360    3.2711 H       2  RES22       0.0286
    124 H40B        0.2588   -5.9202    3.2711 H       2  RES22       0.0286
    125 C40A       -0.2540    4.9272   13.8896 C.3     2  RES22       0.0730
    126 C40B       -4.1401   -2.6836   13.8896 C.3     2  RES22       0.0730
    127 H41A       -0.0810    4.1375   14.4449 H       2  RES22       0.0565
    128 H41B       -3.5426   -2.1389   14.4449 H       2  RES22       0.0565
    129 C41A        1.0341    5.4950   13.4463 C.3     2  RES22       0.0730
    130 C41B       -5.2758   -1.8519   13.4463 C.3     2  RES22       0.0730
    131 H42A        0.8999    6.1339   12.7155 H       2  RES22       0.0565
    132 H42B       -5.7621   -2.2876   12.7155 H       2  RES22       0.0565
    133 C42A        1.5772    6.2009   14.6939 C.3     2  RES22      -0.0285
    134 C42B       -6.1588   -1.7346   14.6939 C.3     2  RES22      -0.0285
    135 H43A        1.9884    7.0473   14.4591 H       2  RES22       0.0286
    136 H43B       -7.0973   -1.8016   14.4591 H       2  RES22       0.0286
    137 H44A        2.2339    5.6458   15.1438 H       2  RES22       0.0286
    138 H44B       -6.0064   -0.8882   15.1438 H       2  RES22       0.0286
    139 C43A        0.3435    6.4230   15.5882 C.3     2  RES22      -0.0491
    140 C43B       -5.7342   -2.9140   15.5882 C.3     2  RES22      -0.0491
    141 H45A        0.4016    5.8783   16.3893 H       2  RES22       0.0267
    142 H45B       -5.2916   -2.5914   16.3893 H       2  RES22       0.0267
    143 H46A        0.2746    7.3552   15.8483 H       2  RES22       0.0267
    144 H46B       -6.5071   -3.4399   15.8483 H       2  RES22       0.0267
    145 C44A       -0.8491    6.0124   14.7477 C.3     2  RES22      -0.0285
    146 C44B       -4.7824   -3.7415   14.7477 C.3     2  RES22      -0.0285
    147 H47A       -1.5723    5.6730   15.2986 H       2  RES22       0.0286
    148 H47B       -4.1268   -4.1982   15.2986 H       2  RES22       0.0286
    149 H48A       -1.1756    6.7498   14.2100 H       2  RES22       0.0286
    150 H48B       -5.2577   -4.3930   14.2100 H       2  RES22       0.0286
@<TRIPOS>BOND
     1     1     8    2
     2     2    19    2
     3     3    21    2
     4     4    23    2
     5     5     6   ar
     6     6     7    1
     7     8     5    1
     8     9     8    1
     9    10    11   ar
    10    11    12    1
    11    13    11   ar
    12    14    13   ar
    13    15    14    1
    14    16    14   ar
    15    17    10   ar
    16    18    17    1
    17    19    10    1
    18    20    19    1
    19    21    16    1
    20    22    21    1
    21    23    24    1
    22    25     1    1
    23    26    25    1
    24    27     2    1
    25    28    27    1
    26    29    27    1
    27    30    29    1
    28    31    29    1
    29    32    29    1
    30    33    32    1
    31    34    32    1
    32    35    25    1
    33    36    35    1
    34    37    35    1
    35    38     3    1
    36    39    38    1
    37    40     4    1
    38    41    40    1
    39    42    40    1
    40    43    42    1
    41    44    42    1
    42    45    42    1
    43    46    45    1
    44    47    45    1
    45    48    38    1
    46    49    48    1
    47    50    48    1
    48    51    65    2
    49    52    66    2
    50    53    87    2
    51    54    88    2
    52    55    91    2
    53    56    92    2
    54    57    95    2
    55    58    96    2
    56    59    61   ar
    57    60     6   ar
    58    61     5   ar
    59    62    59   ar
    60    63    61    1
    61    64    62    1
    62    65    59    1
    63    66    60    1
    64    67    65    1
    65    68    66    1
    66    69    71   ar
    67    70    72   ar
    68    71    73    1
    69    72    74    1
    70    75    71   ar
    71    76    23    1
    72    77    75   ar
    73    78    76   ar
    74    79    77    1
    75    80    78    1
    76    81    77   ar
    77    82    78   ar
    78    83    69   ar
    79    84    70   ar
    80    85    83    1
    81    86    84    1
    82    87    69    1
    83    88    70    1
    84    89    87    1
    85    90    88    1
    86    91    81    1
    87    92    82    1
    88    93    91    1
    89    94    92    1
    90    95    13    1
    91    96    75    1
    92    97    95    1
    93    98    96    1
    94    99    51    1
    95   100    52    1
    96   101    99    1
    97   102   100    1
    98   103    53    1
    99   104    54    1
   100   105   103    1
   101   106   104    1
   102   107   103    1
   103   108   104    1
   104   109   107    1
   105   110   108    1
   106   111   107    1
   107   112   108    1
   108   113   107    1
   109   114   108    1
   110   115   113    1
   111   116   114    1
   112   117   113    1
   113   118   114    1
   114   119    99    1
   115   120   100    1
   116   121   119    1
   117   122   120    1
   118   123   119    1
   119   124   120    1
   120   125    55    1
   121   126    56    1
   122   127   125    1
   123   128   126    1
   124   129    57    1
   125   130    58    1
   126   131   129    1
   127   132   130    1
   128   133   129    1
   129   134   130    1
   130   135   133    1
   131   136   134    1
   132   137   133    1
   133   138   134    1
   134   139   133    1
   135   140   134    1
   136   141   139    1
   137   142   140    1
   138   143   139    1
   139   144   140    1
   140   145   125    1
   141   146   126    1
   142   147   145    1
   143   148   146    1
   144   149   145    1
   145   150   146    1
   146    16    17   ar
   147    25    27    1
   148    32    35    1
   149    38    40    1
   150    45    48    1
   151    60    62   ar
   152    72    76   ar
   153    81    83   ar
   154    82    84   ar
   155    99   103    1
   156   100   104    1
   157   113   119    1
   158   114   120    1
   159   125   129    1
   160   126   130    1
   161   139   145    1
   162   140   146    1
