@<TRIPOS>MOLECULE
*****
 150 162 0 0 0
SMALL
GASTEIGER

@<TRIPOS>ATOM
      1 N5          3.3847    1.5177    5.0280 N.2     2  RES22      -0.2856
      2 N6          4.7797    2.5497    7.5700 N.2     2  RES22      -0.2856
      3 N7          4.4884   -1.2988   12.7966 N.2     2  RES22      -0.2856
      4 N8          2.8731   -3.8506   13.0687 N.2     2  RES22      -0.2856
      5 C23         1.0809    0.9173    5.1717 C.ar    2  RES22      -0.0062
      6 C24         1.2975   -0.4837    5.1772 C.ar    2  RES22      -0.0445
      7 H25         2.1714   -0.8006    5.1860 H       2  RES22       0.0630
      8 C25         2.1822    1.8742    5.1904 C.2     2  RES22       0.0297
      9 H26         1.9957    2.7728    5.3275 H       2  RES22       0.0831
     10 C26         4.0948    1.7762    9.7521 C.ar    2  RES22      -0.0062
     11 C27         3.4665    2.9646   10.1405 C.ar    2  RES22      -0.0445
     12 H27         3.4244    3.6838    9.5514 H       2  RES22       0.0630
     13 C28         2.9032    3.0688   11.3989 C.ar    2  RES22      -0.0062
     14 C29         2.9730    1.9555   12.2338 C.ar    2  RES22      -0.0445
     15 H28         2.5529    1.9993   13.0621 H       2  RES22       0.0630
     16 C30         3.6326    0.7922   11.8959 C.ar    2  RES22      -0.0062
     17 C31         4.1887    0.6921   10.6342 C.ar    2  RES22      -0.0445
     18 H29         4.6232   -0.0896   10.3731 H       2  RES22       0.0630
     19 C32         4.6882    1.5949    8.3917 C.2     2  RES22       0.0297
     20 H30         4.9976    0.7547    8.1438 H       2  RES22       0.0831
     21 C33         3.7000   -0.3169   12.8821 C.2     2  RES22       0.0297
     22 H31         3.1235   -0.2856   13.6117 H       2  RES22       0.0831
     23 C34         2.5891   -4.0215   11.8586 C.2     2  RES22       0.0297
     24 H32         3.2775   -4.1341   11.2420 H       2  RES22       0.0831
     25 C35         4.4090    2.5497    5.1311 C.3     2  RES22       0.0730
     26 H33         4.0009    3.4274    5.2803 H       2  RES22       0.0565
     27 C36         5.3972    2.2099    6.2633 C.3     2  RES22       0.0730
     28 H34         5.6391    1.2613    6.2348 H       2  RES22       0.0565
     29 C37         6.5876    3.0709    5.9441 C.3     2  RES22      -0.0285
     30 H35         7.3904    2.7186    6.3544 H       2  RES22       0.0286
     31 H36         6.4492    3.9819    6.2469 H       2  RES22       0.0286
     32 C38         6.6742    3.0083    4.4323 C.3     2  RES22      -0.0491
     33 H37         6.9138    3.8777    4.0757 H       2  RES22       0.0267
     34 H38         7.3579    2.3704    4.1646 H       2  RES22       0.0267
     35 C39         5.3514    2.5851    3.9079 C.3     2  RES22      -0.0285
     36 H39         5.4092    1.7095    3.4965 H       2  RES22       0.0286
     37 H40         5.0264    3.2189    3.2474 H       2  RES22       0.0286
     38 C40         4.3909   -2.2307   13.9343 C.3     2  RES22       0.0730
     39 H41         3.6206   -1.9847   14.4872 H       2  RES22       0.0565
     40 C41         4.2405   -3.6379   13.4888 C.3     2  RES22       0.0730
     41 H42         4.8567   -3.8297   12.7516 H       2  RES22       0.0565
     42 C42         4.6220   -4.4531   14.7362 C.3     2  RES22      -0.0285
     43 H43         3.8288   -4.7887   15.1817 H       2  RES22       0.0286
     44 H44         5.1853   -5.2036   14.4949 H       2  RES22       0.0286
     45 C43         5.3779   -3.4816   15.6403 C.3     2  RES22      -0.0491
     46 H45         4.8459   -3.2564   16.4192 H       2  RES22       0.0267
     47 H46         6.2156   -3.8694   15.9343 H       2  RES22       0.0267
     48 C44         5.6259   -2.2516   14.7922 C.3     2  RES22      -0.0285
     49 H47         5.6969   -1.4531   15.3364 H       2  RES22       0.0286
     50 H48         6.4299   -2.3475   14.2557 H       2  RES22       0.0286
     51 N5A        -3.0067    2.1723    5.0280 N.2     2  RES22      -0.2856
     52 N5B        -0.3779   -3.6901    5.0280 N.2     2  RES22      -0.2856
     53 N6A        -4.5979    2.8645    7.5700 N.2     2  RES22      -0.2856
     54 N6B        -0.1818   -5.4142    7.5700 N.2     2  RES22      -0.2856
     55 N7A        -1.1194    4.5365   12.7966 N.2     2  RES22      -0.2856
     56 N7B        -3.3690   -3.2377   12.7966 N.2     2  RES22      -0.2856
     57 N8A         1.8982    4.4135   13.0687 N.2     2  RES22      -0.2856
     58 N8B        -4.7713   -0.5629   13.0687 N.2     2  RES22      -0.2856
     59 C23A       -1.3348    0.4774    5.1717 C.ar    2  RES22      -0.0062
     60 C23B        0.2540   -1.3947    5.1717 C.ar    2  RES22      -0.0062
     61 C24A       -0.2299    1.3655    5.1772 C.ar    2  RES22      -0.0445
     62 C24B       -1.0676   -0.8819    5.1772 C.ar    2  RES22      -0.0445
     63 H25A       -0.3924    2.2808    5.1860 H       2  RES22       0.0630
     64 H25B       -1.7790   -1.4802    5.1860 H       2  RES22       0.0630
     65 C25A       -2.7142    0.9527    5.1904 C.2     2  RES22       0.0297
     66 C25B        0.5320   -2.8270    5.1904 C.2     2  RES22       0.0297
     67 H26A       -3.3991    0.3419    5.3275 H       2  RES22       0.0831
     68 H26B        1.4035   -3.1147    5.3275 H       2  RES22       0.0831
     69 C26A       -3.5857    2.6581    9.7521 C.ar    2  RES22      -0.0062
     70 C26B       -0.5091   -4.4343    9.7521 C.ar    2  RES22      -0.0062
     71 C27A       -4.3006    1.5198   10.1405 C.ar    2  RES22      -0.0445
     72 C27B        0.8341   -4.4844   10.1405 C.ar    2  RES22      -0.0445
     73 H27A       -4.9025    1.1237    9.5514 H       2  RES22       0.0630
     74 H27B        1.4781   -4.8075    9.5514 H       2  RES22       0.0630
     75 C28A       -4.1093    0.9798   11.3989 C.ar    2  RES22      -0.0062
     76 C28B        1.2061   -4.0486   11.3989 C.ar    2  RES22      -0.0062
     77 C29A       -3.1800    1.5969   12.2338 C.ar    2  RES22      -0.0445
     78 C29B        0.2070   -3.5525   12.2338 C.ar    2  RES22      -0.0445
     79 H28A       -3.0079    1.2113   13.0621 H       2  RES22       0.0630
     80 H28B        0.4550   -3.2106   13.0621 H       2  RES22       0.0630
     81 C30A       -2.5024    2.7498   11.8959 C.ar    2  RES22      -0.0062
     82 C30B       -1.1302   -3.5420   11.8959 C.ar    2  RES22      -0.0062
     83 C31A       -2.6938    3.2814   10.6342 C.ar    2  RES22      -0.0445
     84 C31B       -1.4949   -3.9736   10.6342 C.ar    2  RES22      -0.0445
     85 H29A       -2.2340    4.0486   10.3731 H       2  RES22       0.0630
     86 H29B       -2.3892   -3.9590   10.3731 H       2  RES22       0.0630
     87 C32A       -3.7253    3.2627    8.3917 C.2     2  RES22       0.0297
     88 C32B       -0.9629   -4.8575    8.3917 C.2     2  RES22       0.0297
     89 H30A       -3.1524    3.9507    8.1438 H       2  RES22       0.0831
     90 H30B       -1.8452   -4.7054    8.1438 H       2  RES22       0.0831
     91 C33A       -1.5756    3.3628   12.8821 C.2     2  RES22       0.0297
     92 C33B       -2.1244   -3.0459   12.8821 C.2     2  RES22       0.0297
     93 H31A       -1.3144    2.8478   13.6117 H       2  RES22       0.0831
     94 H31B       -1.8091   -2.5622   13.6117 H       2  RES22       0.0831
     95 C34A        2.1882    4.2530   11.8586 C.2     2  RES22       0.0297
     96 C34B       -4.7773   -0.2314   11.8586 C.2     2  RES22       0.0297
     97 H32A        1.9415    4.9055   11.2420 H       2  RES22       0.0831
     98 H32B       -5.2190   -0.7714   11.2420 H       2  RES22       0.0831
     99 C35A       -4.4126    2.5434    5.1311 C.3     2  RES22       0.0730
    100 C35B        0.0036   -5.0931    5.1311 C.3     2  RES22       0.0730
    101 H33A       -4.9687    1.7512    5.2803 H       2  RES22       0.0565
    102 H33B        0.9677   -5.1786    5.2803 H       2  RES22       0.0565
    103 C36A       -4.6124    3.5691    6.2633 C.3     2  RES22       0.0730
    104 C36B       -0.7848   -5.7790    6.2633 C.3     2  RES22       0.0730
    105 H34A       -3.9119    4.2530    6.2348 H       2  RES22       0.0565
    106 H34B       -1.7272   -5.5143    6.2348 H       2  RES22       0.0565
    107 C37A       -5.9533    4.1696    5.9441 C.3     2  RES22      -0.0285
    108 C37B       -0.6343   -7.2405    5.9441 C.3     2  RES22      -0.0285
    109 H35A       -6.0495    5.0410    6.3544 H       2  RES22       0.0286
    110 H35B       -1.3409   -7.7596    6.3544 H       2  RES22       0.0286
    111 H36A       -6.6730    3.5942    6.2469 H       2  RES22       0.0286
    112 H36B        0.2239   -7.5761    6.2469 H       2  RES22       0.0286
    113 C38A       -5.9424    4.2759    4.4323 C.3     2  RES22      -0.0491
    114 C38B       -0.7318   -7.2842    4.4323 C.3     2  RES22      -0.0491
    115 H37A       -6.8151    4.0486    4.0757 H       2  RES22       0.0267
    116 H37B       -0.0987   -7.9263    4.0757 H       2  RES22       0.0267
    117 H38A       -5.7318    5.1869    4.1646 H       2  RES22       0.0267
    118 H38B       -1.6261   -7.5573    4.1646 H       2  RES22       0.0267
    119 C39A       -4.9145    3.3419    3.9079 C.3     2  RES22      -0.0285
    120 C39B       -0.4369   -5.9270    3.9079 C.3     2  RES22      -0.0285
    121 H39A       -4.1851    3.8297    3.4965 H       2  RES22       0.0286
    122 H39B       -1.2241   -5.5393    3.4965 H       2  RES22       0.0286
    123 H40A       -5.3009    2.7436    3.2474 H       2  RES22       0.0286
    124 H40B        0.2744   -5.9625    3.2474 H       2  RES22       0.0286
    125 C40A       -0.2636    4.9180   13.9343 C.3     2  RES22       0.0730
    126 C40B       -4.1273   -2.6873   13.9343 C.3     2  RES22       0.0730
    127 H41A       -0.0915    4.1279   14.4872 H       2  RES22       0.0565
    128 H41B       -3.5291   -2.1432   14.4872 H       2  RES22       0.0565
    129 C41A        1.0303    5.4913   13.4888 C.3     2  RES22       0.0730
    130 C41B       -5.2708   -1.8534   13.4888 C.3     2  RES22       0.0730
    131 H42A        0.8883    6.1209   12.7516 H       2  RES22       0.0565
    132 H42B       -5.7450   -2.2912   12.7516 H       2  RES22       0.0565
    133 C42A        1.5455    6.2293   14.7362 C.3     2  RES22      -0.0285
    134 C42B       -6.1675   -1.7762   14.7362 C.3     2  RES22      -0.0285
    135 H43A        2.2328    5.7102   15.1817 H       2  RES22       0.0286
    136 H43B       -6.0616   -0.9215   15.1817 H       2  RES22       0.0286
    137 H44A        1.9138    7.0924   14.4949 H       2  RES22       0.0286
    138 H44B       -7.0991   -1.8888   14.4949 H       2  RES22       0.0286
    139 C43A        0.3262    6.3982   15.6403 C.3     2  RES22      -0.0491
    140 C43B       -5.7041   -2.9166   15.6403 C.3     2  RES22      -0.0491
    141 H45A        0.3972    5.8249   16.4192 H       2  RES22       0.0267
    142 H45B       -5.2431   -2.5685   16.4192 H       2  RES22       0.0267
    143 H46A        0.2431    7.3176   15.9343 H       2  RES22       0.0267
    144 H46B       -6.4588   -3.4482   15.9343 H       2  RES22       0.0267
    145 C44A       -0.8630    5.9979   14.7922 C.3     2  RES22      -0.0285
    146 C44B       -4.7628   -3.7464   14.7922 C.3     2  RES22      -0.0285
    147 H47A       -1.5900    5.6602   15.3364 H       2  RES22       0.0286
    148 H47B       -4.1069   -4.2071   15.3364 H       2  RES22       0.0286
    149 H48A       -1.1820    6.7422   14.2557 H       2  RES22       0.0286
    150 H48B       -5.2479   -4.3947   14.2557 H       2  RES22       0.0286
@<TRIPOS>BOND
     1     1     8    2
     2     2    19    2
     3     3    21    2
     4     4    23    2
     5     5     6   ar
     6     6     7    1
     7     8     5    1
     8     9     8    1
     9    10    11   ar
    10    11    12    1
    11    13    11   ar
    12    14    13   ar
    13    15    14    1
    14    16    14   ar
    15    17    10   ar
    16    18    17    1
    17    19    10    1
    18    20    19    1
    19    21    16    1
    20    22    21    1
    21    23    24    1
    22    25     1    1
    23    26    25    1
    24    27     2    1
    25    28    27    1
    26    29    27    1
    27    30    29    1
    28    31    29    1
    29    32    29    1
    30    33    32    1
    31    34    32    1
    32    35    25    1
    33    36    35    1
    34    37    35    1
    35    38     3    1
    36    39    38    1
    37    40     4    1
    38    41    40    1
    39    42    40    1
    40    43    42    1
    41    44    42    1
    42    45    42    1
    43    46    45    1
    44    47    45    1
    45    48    38    1
    46    49    48    1
    47    50    48    1
    48    51    65    2
    49    52    66    2
    50    53    87    2
    51    54    88    2
    52    55    91    2
    53    56    92    2
    54    57    95    2
    55    58    96    2
    56    59    61   ar
    57    60     6   ar
    58    61     5   ar
    59    62    59   ar
    60    63    61    1
    61    64    62    1
    62    65    59    1
    63    66    60    1
    64    67    65    1
    65    68    66    1
    66    69    71   ar
    67    70    72   ar
    68    71    73    1
    69    72    74    1
    70    75    71   ar
    71    76    23    1
    72    77    75   ar
    73    78    76   ar
    74    79    77    1
    75    80    78    1
    76    81    77   ar
    77    82    78   ar
    78    83    69   ar
    79    84    70   ar
    80    85    83    1
    81    86    84    1
    82    87    69    1
    83    88    70    1
    84    89    87    1
    85    90    88    1
    86    91    81    1
    87    92    82    1
    88    93    91    1
    89    94    92    1
    90    95    13    1
    91    96    75    1
    92    97    95    1
    93    98    96    1
    94    99    51    1
    95   100    52    1
    96   101    99    1
    97   102   100    1
    98   103    53    1
    99   104    54    1
   100   105   103    1
   101   106   104    1
   102   107   103    1
   103   108   104    1
   104   109   107    1
   105   110   108    1
   106   111   107    1
   107   112   108    1
   108   113   107    1
   109   114   108    1
   110   115   113    1
   111   116   114    1
   112   117   113    1
   113   118   114    1
   114   119    99    1
   115   120   100    1
   116   121   119    1
   117   122   120    1
   118   123   119    1
   119   124   120    1
   120   125    55    1
   121   126    56    1
   122   127   125    1
   123   128   126    1
   124   129    57    1
   125   130    58    1
   126   131   129    1
   127   132   130    1
   128   133   129    1
   129   134   130    1
   130   135   133    1
   131   136   134    1
   132   137   133    1
   133   138   134    1
   134   139   133    1
   135   140   134    1
   136   141   139    1
   137   142   140    1
   138   143   139    1
   139   144   140    1
   140   145   125    1
   141   146   126    1
   142   147   145    1
   143   148   146    1
   144   149   145    1
   145   150   146    1
   146    16    17   ar
   147    25    27    1
   148    32    35    1
   149    38    40    1
   150    45    48    1
   151    60    62   ar
   152    72    76   ar
   153    81    83   ar
   154    82    84   ar
   155    99   103    1
   156   100   104    1
   157   113   119    1
   158   114   120    1
   159   125   129    1
   160   126   130    1
   161   139   145    1
   162   140   146    1
