@<TRIPOS>MOLECULE
*****
 150 159 0 0 0
SMALL
GASTEIGER

@<TRIPOS>ATOM
      1 C1          3.7074   14.1599   10.4280 C.ar    1  RES11       0.0398
      2 C2          2.3834   14.1416   10.6939 C.ar    1  RES11      -0.0457
      3 H1          2.1003   14.0929   11.5980 H       1  RES11       0.0629
      4 C3          1.3416   14.1949    9.6158 C.ar    1  RES11      -0.0606
      5 H2          0.4150   14.3137    9.7899 H       1  RES11       0.0618
      6 C4          1.8541   14.0563    8.3927 C.ar    1  RES11      -0.0599
      7 H3          1.2730   13.8295    7.6772 H       1  RES11       0.0618
      8 C5          3.1526   14.2254    8.1432 C.ar    1  RES11      -0.0397
      9 H4          3.4287   14.2954    7.2372 H       1  RES11       0.0636
     10 C6          4.1373   14.3045    9.1454 C.ar    1  RES11       0.0418
     11 C7          5.9448   14.6335    7.5805 C.3     1  RES11       0.0349
     12 H5          5.4481   15.3446    7.1019 H       1  RES11       0.0511
     13 H6          5.8041   13.7838    7.0922 H       1  RES11       0.0511
     14 C8          7.4130   14.9685    7.5805 C.ar    1  RES11      -0.0235
     15 C9          8.3906   13.8751    7.5336 C.ar    1  RES11      -0.0377
     16 C10         7.8781   12.4757    7.6482 C.3     1  RES11      -0.0299
     17 H7          8.5093   11.9458    8.1945 H       1  RES11       0.0311
     18 H8          7.0086   12.4895    8.1220 H       1  RES11       0.0311
     19 C11         7.7084   11.8347    6.3912 C.3     1  RES11      -0.0612
     20 H9          7.3268   10.9424    6.5266 H       1  RES11       0.0233
     21 H10         8.5796   11.7509    5.9464 H       1  RES11       0.0233
     22 H11         7.1062   12.3661    5.8304 H       1  RES11       0.0233
     23 N1          5.4314   14.5055    8.8873 N.pl3   1  RES11      -0.3388
     24 H12         5.9905   14.5604    9.5626 H       1  RES11       0.1464
     25 S1          4.8582   14.2528   11.8068 S.3     1  RES11      -0.0501
     26 C1A        12.2580   11.3581   10.4280 C.ar    1  RES11       0.0398
     27 C1B        10.4091   20.1640   10.4280 C.ar    1  RES11       0.0398
     28 C1C        10.4091   10.2906   13.7445 C.ar    1  RES11       0.0398
     29 C1D         3.7074   16.2948   13.7445 C.ar    1  RES11       0.0398
     30 C1E        12.2580   19.0966   13.7445 C.ar    1  RES11       0.0398
     31 C2A        12.9358   10.2206   10.6939 C.ar    1  RES11      -0.0457
     32 C2B        11.0553   21.3198   10.6939 C.ar    1  RES11      -0.0457
     33 C2C        11.0553    9.1349   13.4786 C.ar    1  RES11      -0.0457
     34 C2D         2.3834   16.3130   13.4786 C.ar    1  RES11      -0.0457
     35 C2E        12.9358   20.2341   13.4786 C.ar    1  RES11      -0.0457
     36 H1A        13.1196    9.9998   11.5980 H       1  RES11       0.0629
     37 H1B        11.1547   21.5893   11.5980 H       1  RES11       0.0629
     38 H1C        11.1547    8.8653   12.5745 H       1  RES11       0.0629
     39 H1D         2.1003   16.3618   12.5745 H       1  RES11       0.0629
     40 H1E        13.1196   20.4549   12.5745 H       1  RES11       0.0629
     41 C3A        13.4106    9.2917    9.6158 C.ar    1  RES11      -0.0606
     42 C3B        11.6224   22.1953    9.6158 C.ar    1  RES11      -0.0606
     43 C3C        11.6224    8.2593   14.5567 C.ar    1  RES11      -0.0606
     44 C3D         1.3416   16.2597   14.5567 C.ar    1  RES11      -0.0606
     45 C3E        13.4106   21.1629   14.5567 C.ar    1  RES11      -0.0606
     46 H2A        13.7710    8.4298    9.7899 H       1  RES11       0.0618
     47 H2B        12.1885   22.9384    9.7899 H       1  RES11       0.0618
     48 H2C        12.1885    7.5162   14.3826 H       1  RES11       0.0618
     49 H2D         0.4150   16.1410   14.3826 H       1  RES11       0.0618
     50 H2E        13.7710   22.0248   14.3826 H       1  RES11       0.0618
     51 C4A        13.2743    9.8049    8.3927 C.ar    1  RES11      -0.0599
     52 C4B        11.2461   21.8208    8.3927 C.ar    1  RES11      -0.0599
     53 C4C        11.2461    8.6339   15.7798 C.ar    1  RES11      -0.0599
     54 C4D         1.8541   16.3983   15.7798 C.ar    1  RES11      -0.0599
     55 C4E        13.2743   20.6498   15.7798 C.ar    1  RES11      -0.0599
     56 H3A        13.7613    9.4151    7.6772 H       1  RES11       0.0618
     57 H3B        11.3402   22.4375    7.6772 H       1  RES11       0.0618
     58 H3C        11.3402    8.0172   16.4953 H       1  RES11       0.0618
     59 H3D         1.2730   16.6252   16.4953 H       1  RES11       0.0618
     60 H3E        13.7613   21.0396   16.4953 H       1  RES11       0.0618
     61 C5A        12.4787   10.8449    8.1432 C.ar    1  RES11      -0.0397
     62 C5B        10.7432   20.6117    8.1432 C.ar    1  RES11      -0.0397
     63 C5C        10.7432    9.8429   16.0293 C.ar    1  RES11      -0.0397
     64 C5D         3.1526   16.2293   16.0293 C.ar    1  RES11      -0.0397
     65 C5E        12.4787   19.6097   16.0293 C.ar    1  RES11      -0.0397
     66 H4A        12.2800   11.0489    7.2372 H       1  RES11       0.0636
     67 H4B        10.6658   20.3376    7.2372 H       1  RES11       0.0636
     68 H4C        10.6658   10.1170   16.9353 H       1  RES11       0.0636
     69 H4D         3.4287   16.1592   16.9353 H       1  RES11       0.0636
     70 H4E        12.2800   19.4057   16.9353 H       1  RES11       0.0636
     71 C6A        11.9178   11.6580    9.1454 C.ar    1  RES11       0.0418
     72 C6B        10.3195   19.7194    9.1454 C.ar    1  RES11       0.0418
     73 C6C        10.3195   10.7353   15.0271 C.ar    1  RES11       0.0418
     74 C6D         4.1373   16.1501   15.0271 C.ar    1  RES11       0.0418
     75 C6E        11.9178   18.7966   15.0271 C.ar    1  RES11       0.0418
     76 C7A        10.7291   13.0590    7.5805 C.3     1  RES11       0.0349
     77 C7B         9.7005   17.9896    7.5805 C.3     1  RES11       0.0349
     78 C7C         9.7005   12.4651   16.5920 C.3     1  RES11       0.0349
     79 C7D         5.9448   15.8212   16.5920 C.3     1  RES11       0.0349
     80 C7E        10.7291   17.3957   16.5920 C.3     1  RES11       0.0349
     81 H5A        10.3617   12.2732    7.1019 H       1  RES11       0.0511
     82 H5B        10.5647   18.0642    7.1019 H       1  RES11       0.0511
     83 H5C        10.5647   12.3905   17.0706 H       1  RES11       0.0511
     84 H5D         5.4481   15.1101   17.0706 H       1  RES11       0.0511
     85 H5E        10.3617   18.1814   17.0706 H       1  RES11       0.0511
     86 H6A        11.5353   13.3620    7.0922 H       1  RES11       0.0511
     87 H6B         9.0350   18.5362    7.0922 H       1  RES11       0.0511
     88 H6C         9.0350   11.9184   17.0803 H       1  RES11       0.0511
     89 H6D         5.8041   16.6709   17.0803 H       1  RES11       0.0511
     90 H6E        11.5353   17.0927   17.0803 H       1  RES11       0.0511
     91 C8A         9.7049   14.1629    7.5805 C.ar    1  RES11      -0.0235
     92 C8B         9.2566   16.5506    7.5805 C.ar    1  RES11      -0.0235
     93 C8C         9.2566   13.9041   16.5920 C.ar    1  RES11      -0.0235
     94 C8D         7.4130   15.4862   16.5920 C.ar    1  RES11      -0.0235
     95 C8E         9.7049   16.2917   16.5920 C.ar    1  RES11      -0.0235
     96 C9A        10.1630   15.5562    7.5336 C.ar    1  RES11      -0.0377
     97 C9B         7.8209   16.2506    7.5336 C.ar    1  RES11      -0.0377
     98 C9C         7.8209   14.2040   16.6389 C.ar    1  RES11      -0.0377
     99 C9D         8.3906   16.5795   16.6389 C.ar    1  RES11      -0.0377
    100 C9E        10.1630   14.8984   16.6389 C.ar    1  RES11      -0.0377
    101 C10A       11.6312   15.8121    7.6482 C.3     1  RES11      -0.0299
    102 C10B        6.8653   17.3942    7.6482 C.3     1  RES11      -0.0299
    103 C10C        6.8653   13.0605   16.5243 C.3     1  RES11      -0.0299
    104 C10D        7.8781   17.9789   16.5243 C.3     1  RES11      -0.0299
    105 C10E       11.6312   14.6426   16.5243 C.3     1  RES11      -0.0299
    106 H7A        11.7745   16.6237    8.1945 H       1  RES11       0.0311
    107 H7B         6.0908   17.1125    8.1945 H       1  RES11       0.0311
    108 H7C         6.0908   13.3422   15.9780 H       1  RES11       0.0311
    109 H7D         8.5093   18.5088   15.9780 H       1  RES11       0.0311
    110 H7E        11.7745   13.8310   15.9780 H       1  RES11       0.0311
    111 H8A        12.0540   15.0522    8.1220 H       1  RES11       0.0311
    112 H8B         7.3119   18.1403    8.1220 H       1  RES11       0.0311
    113 H8C         7.3119   12.3143   16.0505 H       1  RES11       0.0311
    114 H8D         7.0086   17.9652   16.0505 H       1  RES11       0.0311
    115 H8E        12.0540   15.4024   16.0505 H       1  RES11       0.0311
    116 C11A       12.2712   15.9856    6.3912 C.3     1  RES11      -0.0612
    117 C11B        6.3949   17.8617    6.3912 C.3     1  RES11      -0.0612
    118 C11C        6.3949   12.5930   17.7813 C.3     1  RES11      -0.0612
    119 C11D        7.7084   18.6200   17.7813 C.3     1  RES11      -0.0612
    120 C11E       12.2712   14.4690   17.7813 C.3     1  RES11      -0.0612
    121 H9A        13.2347   16.1014    6.5266 H       1  RES11       0.0233
    122 H9B         5.8129   18.6382    6.5266 H       1  RES11       0.0233
    123 H9C         5.8129   11.8164   17.6459 H       1  RES11       0.0233
    124 H9D         7.3268   19.5123   17.6459 H       1  RES11       0.0233
    125 H9E        13.2347   14.3533   17.6459 H       1  RES11       0.0233
    126 H10A       11.9081   16.7820    5.9464 H       1  RES11       0.0233
    127 H10B        5.8868   17.1490    5.9464 H       1  RES11       0.0233
    128 H10C        5.8868   13.3056   18.2261 H       1  RES11       0.0233
    129 H10D        8.5796   18.7037   18.2261 H       1  RES11       0.0233
    130 H10E       11.9081   13.6726   18.2261 H       1  RES11       0.0233
    131 H11A       12.1120   15.1984    5.8304 H       1  RES11       0.0233
    132 H11B        7.1563   18.1175    5.8304 H       1  RES11       0.0233
    133 H11C        7.1563   12.3372   18.3421 H       1  RES11       0.0233
    134 H11D        7.1062   18.0885   18.3421 H       1  RES11       0.0233
    135 H11E       12.1120   15.2563   18.3421 H       1  RES11       0.0233
    136 N1A        11.0966   12.6783    8.8873 N.pl3   1  RES11      -0.3388
    137 N1B         9.8465   18.4982    8.8873 N.pl3   1  RES11      -0.3388
    138 N1C         9.8465   11.9565   15.2852 N.pl3   1  RES11      -0.3388
    139 N1D         5.4314   15.9491   15.2852 N.pl3   1  RES11      -0.3388
    140 N1E        11.0966   17.7764   15.2852 N.pl3   1  RES11      -0.3388
    141 H12A       10.7696   13.1351    9.5626 H       1  RES11       0.1464
    142 H12B        9.6144   17.9865    9.5626 H       1  RES11       0.1464
    143 H12C        9.6144   12.4681   14.6099 H       1  RES11       0.1464
    144 H12D        5.9905   15.8943   14.6099 H       1  RES11       0.1464
    145 H12E       10.7696   17.3196   14.6099 H       1  RES11       0.1464
    146 S1A        11.6021   12.3082   11.8068 S.3     1  RES11      -0.0501
    147 S1B         9.9142   19.1210   11.8068 S.3     1  RES11      -0.0501
    148 S1C         9.9142   11.3337   12.3657 S.3     1  RES11      -0.0501
    149 S1D         4.8582   16.2019   12.3657 S.3     1  RES11      -0.0501
    150 S1E        11.6021   18.1464   12.3657 S.3     1  RES11      -0.0501
@<TRIPOS>BOND
     1     1     2   ar
     2     2     3    1
     3     4     2   ar
     4     5     4    1
     5     6     4   ar
     6     7     6    1
     7     8     6   ar
     8     9     8    1
     9    10     1   ar
    10    11    12    1
    11    13    11    1
    12    14    11    1
    13    15    14   ar
    14    16    15    1
    15    17    16    1
    16    18    16    1
    17    19    16    1
    18    20    19    1
    19    21    19    1
    20    22    19    1
    21    23    10    1
    22    24    23    1
    23    25     1    1
    24    26    31   ar
    25    27    32   ar
    26    28    33   ar
    27    29    34   ar
    28    30    35   ar
    29    31    36    1
    30    32    37    1
    31    33    38    1
    32    34    39    1
    33    35    40    1
    34    41    31   ar
    35    42    32   ar
    36    43    33   ar
    37    44    34   ar
    38    45    35   ar
    39    46    41    1
    40    47    42    1
    41    48    43    1
    42    49    44    1
    43    50    45    1
    44    51    41   ar
    45    52    42   ar
    46    53    43   ar
    47    54    44   ar
    48    55    45   ar
    49    56    51    1
    50    57    52    1
    51    58    53    1
    52    59    54    1
    53    60    55    1
    54    61    51   ar
    55    62    52   ar
    56    63    53   ar
    57    64    54   ar
    58    65    55   ar
    59    66    61    1
    60    67    62    1
    61    68    63    1
    62    69    64    1
    63    70    65    1
    64    71    26   ar
    65    72    27   ar
    66    73    28   ar
    67    74    29   ar
    68    75    30   ar
    69    76    81    1
    70    77    82    1
    71    78    83    1
    72    79    84    1
    73    80    85    1
    74    86    76    1
    75    87    77    1
    76    88    78    1
    77    89    79    1
    78    90    80    1
    79    91    15   ar
    80    92    77    1
    81    93    78    1
    82    94    79    1
    83    95    80    1
    84    96    91   ar
    85    97    14   ar
    86    98    93   ar
    87    99    94   ar
    88   100    93   ar
    89   101    96    1
    90   102    97    1
    91   103    98    1
    92   104    99    1
    93   105   100    1
    94   106   101    1
    95   107   102    1
    96   108   103    1
    97   109   104    1
    98   110   105    1
    99   111   101    1
   100   112   102    1
   101   113   103    1
   102   114   104    1
   103   115   105    1
   104   116   101    1
   105   117   102    1
   106   118   103    1
   107   119   104    1
   108   120   105    1
   109   121   116    1
   110   122   117    1
   111   123   118    1
   112   124   119    1
   113   125   120    1
   114   126   116    1
   115   127   117    1
   116   128   118    1
   117   129   119    1
   118   130   120    1
   119   131   116    1
   120   132   117    1
   121   133   118    1
   122   134   119    1
   123   135   120    1
   124   136    71    1
   125   137    72    1
   126   138    73    1
   127   139    74    1
   128   140    75    1
   129   141   136    1
   130   142   137    1
   131   143   138    1
   132   144   139    1
   133   145   140    1
   134   146    26    1
   135   147    27    1
   136   148    28    1
   137   149    25    1
   138   150    30    1
   139     8    10   ar
   140    11    23    1
   141    29   149    1
   142    61    71   ar
   143    62    72   ar
   144    63    73   ar
   145    64    74   ar
   146    65    75   ar
   147    76    91    1
   148    76   136    1
   149    77   137    1
   150    78   138    1
   151    79   139    1
   152    80   140    1
   153    92    96   ar
   154    92    97   ar
   155    94    98   ar
   156    95    99   ar
   157    95   100   ar
   158   146   148    1
   159   147   150    1
