####################################################################### 
# 
# This file contains crystal structure data downloaded from the 
# Cambridge Structural Database (CSD) hosted by the Cambridge 
# Crystallographic Data Centre (CCDC).
# 
# Full information about CCDC data access policies and citation 
# guidelines are available at http://www.ccdc.cam.ac.uk/access/V1 
# 
# Audit and citation data items may have been added by the CCDC. 
# Please retain this information to preserve the provenance of 
# this file and to allow appropriate attribution of the data. 
# 
#######################################################################
@<TRIPOS>MOLECULE
860486
   164   181     1     0     0
SMALL
NO_CHARGES
****
Generated from the CSD

@<TRIPOS>ATOM
     1 O1       2.0543   6.9310  10.8731   O.3       1 RES1   0.0000
     2 H1       2.3443   6.2504  11.2642   H         1 RES1   0.0000
     3 O2       2.0020   6.0964  -1.0775   O.3       1 RES1   0.0000
     4 H2       2.7947   6.0334  -1.3444   H         1 RES1   0.0000
     5 N1       4.5581   6.2753  10.8374   N.2       1 RES1   0.0000
     6 N2       4.5746   6.3162  -0.9792   N.2       1 RES1   0.0000
     7 C1       4.3843   6.0269   9.5654   C.2       1 RES1   0.0000
     8 H3       5.0988   5.6706   9.0898   H         1 RES1   0.0000
     9 C2       3.1827   6.2667   8.8769   C.ar      1 RES1   0.0000
    10 C3       2.0360   6.7128   9.5353   C.ar      1 RES1   0.0000
    11 C4       0.8895   6.9412   8.8183   C.ar      1 RES1   0.0000
    12 H4       0.1253   7.2311   9.2629   H         1 RES1   0.0000
    13 C5       0.8432   6.7527   7.4495   C.ar      1 RES1   0.0000
    14 H5       0.0622   6.9495   6.9815   H         1 RES1   0.0000
    15 C6       1.9566   6.2691   6.7600   C.ar      1 RES1   0.0000
    16 C7       3.0857   6.0354   7.4811   C.ar      1 RES1   0.0000
    17 H6       3.8325   5.7071   7.0376   H         1 RES1   0.0000
    18 C8       1.8995   6.0354   5.2695   C.3       1 RES1   0.0000
    19 H7       2.6608   5.4934   5.0057   H         1 RES1   0.0000
    20 H8       1.0951   5.5348   5.0617   H         1 RES1   0.0000
    21 C9       4.4533   6.6217   0.2668   C.2       1 RES1   0.0000
    22 H9       5.2222   6.8021   0.7588   H         1 RES1   0.0000
    23 C10      3.1815   6.6961   0.9304   C.ar      1 RES1   0.0000
    24 C11      1.9885   6.4161   0.2617   C.ar      1 RES1   0.0000
    25 C12      0.8273   6.4724   0.9339   C.ar      1 RES1   0.0000
    26 H10      0.0325   6.3051   0.4787   H         1 RES1   0.0000
    27 C13      0.7786   6.7723   2.2778   C.ar      1 RES1   0.0000
    28 H11     -0.0402   6.7822   2.7193   H         1 RES1   0.0000
    29 C14      1.9462   7.0635   2.9892   C.ar      1 RES1   0.0000
    30 C15      3.1305   6.9962   2.3017   C.ar      1 RES1   0.0000
    31 H12      3.9243   7.1549   2.7600   H         1 RES1   0.0000
    32 C16      1.9046   7.2923   4.4705   C.3       1 RES1   0.0000
    33 H13      2.6742   7.8226   4.7257   H         1 RES1   0.0000
    34 H14      1.1095   7.8027   4.6849   H         1 RES1   0.0000
    35 C17      9.5655   5.5215  13.5017   C.3       1 RES1   0.0000
    36 H15      9.5655   5.5215  14.4825   H         1 RES1   0.0000
    37 C18      9.5655   5.5215  10.9378   C.3       1 RES1   0.0000
    38 H16      9.5655   5.5215   9.9554   H         1 RES1   0.0000
    39 C19      8.1949   5.7452  12.9324   C.ar      1 RES1   0.0000
    40 C20      6.9821   5.9373  13.5929   C.ar      1 RES1   0.0000
    41 H17      6.9610   5.9340  14.5232   H         1 RES1   0.0000
    42 C21      5.8047   6.1345  12.8810   C.ar      1 RES1   0.0000
    43 H18      5.0099   6.2885  13.3418   H         1 RES1   0.0000
    44 C22      5.7960   6.1065  11.4857   C.ar      1 RES1   0.0000
    45 C23      7.0030   5.9113  10.8145   C.ar      1 RES1   0.0000
    46 H19      7.0165   5.8976   9.8842   H         1 RES1   0.0000
    47 C24      8.1719   5.7385  11.5157   C.ar      1 RES1   0.0000
    48 C25      9.5655   5.5215  -3.5977   C.3       1 RES1   0.0000
    49 H20      9.5655   5.5215  -4.5780   H         1 RES1   0.0000
    50 C26      9.5655   5.5215  -1.0118   C.3       1 RES1   0.0000
    51 H21      9.5655   5.5215  -0.0306   H         1 RES1   0.0000
    52 C27      8.2034   5.7838  -1.5924   C.ar      1 RES1   0.0000
    53 C28      7.0200   5.9731  -0.8896   C.ar      1 RES1   0.0000
    54 H22      7.0175   5.9688   0.0407   H         1 RES1   0.0000
    55 C29      5.8214   6.1711  -1.6076   C.ar      1 RES1   0.0000
    56 C30      5.8452   6.1616  -2.9978   C.ar      1 RES1   0.0000
    57 H23      5.0529   6.2836  -3.4679   H         1 RES1   0.0000
    58 C31      7.0280   5.9731  -3.6904   C.ar      1 RES1   0.0000
    59 H24      7.0290   5.9754  -4.6187   H         1 RES1   0.0000
    60 C32      8.1963   5.7841  -3.0014   C.ar      1 RES1   0.0000
    61 O1A     12.0995  -1.6864  10.8731   O.3       1 RES1   0.0000
    62 O1B     14.5398  11.3217  10.8731   O.3       1 RES1   0.0000
    63 H1A     12.5438  -1.0950  11.2642   H         1 RES1   0.0000
    64 H1B     13.8054  11.4108  11.2642   H         1 RES1   0.0000
    65 O2A     12.8484  -1.3144  -1.0775   O.3       1 RES1   0.0000
    66 O2B     13.8431  11.7842  -1.0775   O.3       1 RES1   0.0000
    67 H2A     12.5065  -0.5964  -1.3444   H         1 RES1   0.0000
    68 H2B     13.3922  11.1292  -1.3444   H         1 RES1   0.0000
    69 N1A     11.4154   0.8098  10.8374   N.2       1 RES1   0.0000
    70 N1B     12.7200   9.4812  10.8374   N.2       1 RES1   0.0000
    71 N2A     11.3717   0.8036  -0.9792   N.2       1 RES1   0.0000
    72 N2B     12.7472   9.4464  -0.9792   N.2       1 RES1   0.0000
    73 C1A     11.7174   0.7834   9.5654   C.2       1 RES1   0.0000
    74 C1B     12.5919   9.7558   9.5654   C.2       1 RES1   0.0000
    75 H3A     11.6687   1.5804   9.0898   H         1 RES1   0.0000
    76 H3B     11.9260   9.3152   9.0898   H         1 RES1   0.0000
    77 C2A     12.1106  -0.3770   8.8769   C.ar      1 RES1   0.0000
    78 C2B     13.4002  10.6766   8.8769   C.ar      1 RES1   0.0000
    79 C3A     12.2976  -1.5932   9.5353   C.ar      1 RES1   0.0000
    80 C3B     14.3599  11.4466   9.5353   C.ar      1 RES1   0.0000
    81 C4A     12.6730  -2.7003   8.8183   C.ar      1 RES1   0.0000
    82 C4B     15.1310  12.3253   8.8183   C.ar      1 RES1   0.0000
    83 H4A     12.8040  -3.5071   9.2629   H         1 RES1   0.0000
    84 H4B     15.7642  12.8421   9.2629   H         1 RES1   0.0000
    85 C5A     12.8594  -2.6461   7.4495   C.ar      1 RES1   0.0000
    86 C5B     14.9909  12.4596   7.4495   C.ar      1 RES1   0.0000
    87 H5A     13.0795  -3.4209   6.9815   H         1 RES1   0.0000
    88 H5B     15.5519  13.0376   6.9815   H         1 RES1   0.0000
    89 C6A     12.7215  -1.4401   6.7600   C.ar      1 RES1   0.0000
    90 C6B     14.0154  11.7372   6.7600   C.ar      1 RES1   0.0000
    91 C7A     12.3593  -0.3454   7.4811   C.ar      1 RES1   0.0000
    92 C7B     13.2485  10.8762   7.4811   C.ar      1 RES1   0.0000
    93 H6A     12.2703   0.4655   7.0376   H         1 RES1   0.0000
    94 H6B     12.5907  10.3936   7.0376   H         1 RES1   0.0000
    95 C8A     12.9524  -1.3727   5.2695   C.3       1 RES1   0.0000
    96 C8B     13.8416  11.9035   5.2695   C.3       1 RES1   0.0000
    97 H7A     13.0412  -0.4423   5.0057   H         1 RES1   0.0000
    98 H7B     12.9915  11.5152   5.0057   H         1 RES1   0.0000
    99 H8A     13.7882  -1.8190   5.0617   H         1 RES1   0.0000
   100 H8B     13.8102  12.8504   5.0617   H         1 RES1   0.0000
   101 C9A     11.1678   0.5459   0.2668   C.2       1 RES1   0.0000
   102 C9B     13.0724   9.3987   0.2668   C.2       1 RES1   0.0000
   103 H9A     10.6271   1.1215   0.7588   H         1 RES1   0.0000
   104 H9B     12.8442   8.6426   0.7588   H         1 RES1   0.0000
   105 C10A    11.7393  -0.5927   0.9304   C.ar      1 RES1   0.0000
   106 C10B    13.7727  10.4629   0.9304   C.ar      1 RES1   0.0000
   107 C11A    12.5783  -1.4860   0.2617   C.ar      1 RES1   0.0000
   108 C11B    14.1268  11.6361   0.2617   C.ar      1 RES1   0.0000
   109 C12A    13.1101  -2.5197   0.9339   C.ar      1 RES1   0.0000
   110 C12B    14.7561  12.6135   0.9339   C.ar      1 RES1   0.0000
   111 H10A    13.6524  -3.1244   0.4787   H         1 RES1   0.0000
   112 H10B    15.0086  13.3855   0.4787   H         1 RES1   0.0000
   113 C13A    12.8748  -2.7119   2.2778   C.ar      1 RES1   0.0000
   114 C13B    15.0402  12.5058   2.2778   C.ar      1 RES1   0.0000
   115 H11A    13.2755  -3.4259   2.7193   H         1 RES1   0.0000
   116 H11B    15.4581  13.2099   2.7193   H         1 RES1   0.0000
   117 C14A    12.0387  -1.8463   2.9892   C.ar      1 RES1   0.0000
   118 C14B    14.7086  11.3490   2.9892   C.ar      1 RES1   0.0000
   119 C15A    11.5049  -0.7871   2.3017   C.ar      1 RES1   0.0000
   120 C15B    14.0582  10.3570   2.3017   C.ar      1 RES1   0.0000
   121 H12A    10.9705  -0.1789   2.7600   H         1 RES1   0.0000
   122 H12B    13.7987   9.5902   2.7600   H         1 RES1   0.0000
   123 C16A    11.8614  -1.9967   4.4705   C.3       1 RES1   0.0000
   124 C16B    14.9275  11.2706   4.4705   C.3       1 RES1   0.0000
   125 H13A    11.0173  -1.5953   4.7257   H         1 RES1   0.0000
   126 H13B    15.0019  10.3390   4.7257   H         1 RES1   0.0000
   127 H14A    11.8169  -2.9405   4.6849   H         1 RES1   0.0000
   128 H14B    15.7671  11.7040   4.6849   H         1 RES1   0.0000
   129 C19A    10.0561   4.2244  12.9324   C.ar      1 RES1   0.0000
   130 C19B    10.4425   6.5967  12.9324   C.ar      1 RES1   0.0000
   131 C20A    10.4961   3.0780  13.5929   C.ar      1 RES1   0.0000
   132 C20B    11.2153   7.5509  13.5929   C.ar      1 RES1   0.0000
   133 H17A    10.5095   3.0614  14.5232   H         1 RES1   0.0000
   134 H17B    11.2230   7.5708  14.5232   H         1 RES1   0.0000
   135 C21A    10.9141   1.9598  12.8810   C.ar      1 RES1   0.0000
   136 C21B    11.9748   8.4720  12.8810   C.ar      1 RES1   0.0000
   137 H18A    11.1780   1.1944  13.3418   H         1 RES1   0.0000
   138 H18B    12.5056   9.0832  13.3418   H         1 RES1   0.0000
   139 C22A    10.9426   1.9662  11.4857   C.ar      1 RES1   0.0000
   140 C22B    11.9549   8.4935  11.4857   C.ar      1 RES1   0.0000
   141 C23A    10.5081   3.1091  10.8145   C.ar      1 RES1   0.0000
   142 C23B    11.1823   7.5457  10.8145   C.ar      1 RES1   0.0000
   143 H19A    10.5133   3.1277   9.8842   H         1 RES1   0.0000
   144 H19B    11.1637   7.5409   9.8842   H         1 RES1   0.0000
   145 C24A    10.0733   4.2078  11.5157   C.ar      1 RES1   0.0000
   146 C24B    10.4483   6.6199  11.5157   C.ar      1 RES1   0.0000
   147 C27A    10.0184   4.2125  -1.5924   C.ar      1 RES1   0.0000
   148 C27B    10.4717   6.5700  -1.5924   C.ar      1 RES1   0.0000
   149 C28A    10.4462   3.0929  -0.8896   C.ar      1 RES1   0.0000
   150 C28B    11.2274   7.5002  -0.8896   C.ar      1 RES1   0.0000
   151 H22A    10.4511   3.0929   0.0407   H         1 RES1   0.0000
   152 H22B    11.2249   7.5045   0.0407   H         1 RES1   0.0000
   153 C29A    10.8740   1.9560  -1.6076   C.ar      1 RES1   0.0000
   154 C29B    11.9981   8.4392  -1.6076   C.ar      1 RES1   0.0000
   155 C30A    10.8702   1.9813  -2.9978   C.ar      1 RES1   0.0000
   156 C30B    11.9780   8.4233  -2.9978   C.ar      1 RES1   0.0000
   157 H23A    11.1608   1.2342  -3.4679   H         1 RES1   0.0000
   158 H23B    12.4798   9.0485  -3.4679   H         1 RES1   0.0000
   159 C31A    10.4421   3.0999  -3.6904   C.ar      1 RES1   0.0000
   160 C31B    11.2234   7.4932  -3.6904   C.ar      1 RES1   0.0000
   161 H24A    10.4397   3.0995  -4.6187   H         1 RES1   0.0000
   162 H24B    11.2249   7.4912  -4.6187   H         1 RES1   0.0000
   163 C32A    10.0217   4.2062  -3.0014   C.ar      1 RES1   0.0000
   164 C32B    10.4755   6.5760  -3.0014   C.ar      1 RES1   0.0000
@<TRIPOS>BOND
     1     1     2    1
     2     3     4    1
     3     5     7    2
     4     6    21    2
     5     7     8    1
     6     9     7    1
     7    10     1    1
     8    11    10   ar
     9    12    11    1
    10    13    11   ar
    11    14    13    1
    12    15    13   ar
    13    16     9   ar
    14    17    16    1
    15    18    15    1
    16    19    18    1
    17    20    18    1
    18    21    22    1
    19    23    21    1
    20    24     3    1
    21    25    24   ar
    22    26    25    1
    23    27    25   ar
    24    28    27    1
    25    29    27   ar
    26    30    23   ar
    27    31    30    1
    28    32    18    1
    29    33    32    1
    30    34    32    1
    31    35    36    1
    32    37    38    1
    33    39    35    1
    34    40    39   ar
    35    41    40    1
    36    42    40   ar
    37    43    42    1
    38    44     5    1
    39    45    44   ar
    40    46    45    1
    41    47    37    1
    42    48    49    1
    43    50    51    1
    44    52    50    1
    45    53    52   ar
    46    54    53    1
    47    55     6    1
    48    56    55   ar
    49    57    56    1
    50    58    56   ar
    51    59    58    1
    52    60    48    1
    53    61    63    1
    54    62    64    1
    55    65    67    1
    56    66    68    1
    57    69    73    2
    58    70    74    2
    59    71   101    2
    60    72   102    2
    61    73    75    1
    62    74    76    1
    63    77    73    1
    64    78    74    1
    65    79    61    1
    66    80    62    1
    67    81    79   ar
    68    82    80   ar
    69    83    81    1
    70    84    82    1
    71    85    81   ar
    72    86    82   ar
    73    87    85    1
    74    88    86    1
    75    89    85   ar
    76    90    86   ar
    77    91    77   ar
    78    92    78   ar
    79    93    91    1
    80    94    92    1
    81    95    89    1
    82    96    90    1
    83    97    95    1
    84    98    96    1
    85    99    95    1
    86   100    96    1
    87   101   103    1
    88   102   104    1
    89   105   101    1
    90   106   102    1
    91   107    65    1
    92   108    66    1
    93   109   107   ar
    94   110   108   ar
    95   111   109    1
    96   112   110    1
    97   113   109   ar
    98   114   110   ar
    99   115   113    1
   100   116   114    1
   101   117   113   ar
   102   118   114   ar
   103   119   105   ar
   104   120   106   ar
   105   121   119    1
   106   122   120    1
   107   123    95    1
   108   124    96    1
   109   125   123    1
   110   126   124    1
   111   127   123    1
   112   128   124    1
   113   129    35    1
   114   130    35    1
   115   131   129   ar
   116   132   130   ar
   117   133   131    1
   118   134   132    1
   119   135   131   ar
   120   136   132   ar
   121   137   135    1
   122   138   136    1
   123   139    69    1
   124   140    70    1
   125   141   139   ar
   126   142   140   ar
   127   143   141    1
   128   144   142    1
   129   145    37    1
   130   146    37    1
   131   147    50    1
   132   148    50    1
   133   149   147   ar
   134   150   148   ar
   135   151   149    1
   136   152   150    1
   137   153    71    1
   138   154    72    1
   139   155   153   ar
   140   156   154   ar
   141   157   155    1
   142   158   156    1
   143   159   155   ar
   144   160   156   ar
   145   161   159    1
   146   162   160    1
   147   163    48    1
   148   164    48    1
   149     9    10   ar
   150    15    16   ar
   151    23    24   ar
   152    29    30   ar
   153    29    32    1
   154    39    47   ar
   155    42    44   ar
   156    45    47   ar
   157    52    60   ar
   158    53    55   ar
   159    58    60   ar
   160    77    79   ar
   161    78    80   ar
   162    89    91   ar
   163    90    92   ar
   164   105   107   ar
   165   106   108   ar
   166   117   119   ar
   167   117   123    1
   168   118   120   ar
   169   118   124    1
   170   129   145   ar
   171   130   146   ar
   172   135   139   ar
   173   136   140   ar
   174   141   145   ar
   175   142   146   ar
   176   147   163   ar
   177   148   164   ar
   178   149   153   ar
   179   150   154   ar
   180   159   163   ar
   181   160   164   ar
@<TRIPOS>SUBSTRUCTURE
     1 RES1        1 GROUP             0 ****  ****    0  
@<TRIPOS>CRYSIN
   19.1290   19.1290   50.9230   90.0000   90.0000  120.0000   233     1
 

