@<TRIPOS>MOLECULE
*****
 146 163 0 0 0
SMALL
GASTEIGER

@<TRIPOS>ATOM
      1 C83         7.9005   -3.6418   27.5727 C.3     1  RES11       0.0351
      2 H53         7.9746   -4.5277   27.1157 H       1  RES11       0.0446
      3 C84         7.6963   -1.3338   28.7540 C.3     1  RES11       0.0353
      4 H54         7.6127   -0.4466   29.2085 H       1  RES11       0.0446
      5 C85         6.4936    9.8487   33.9871 C.3     1  RES11       0.0351
      6 H55         6.4452   10.7383   34.4407 H       1  RES11       0.0446
      7 C86         6.6176    7.5305   32.8044 C.3     1  RES11       0.0353
      8 H56         6.6631    6.6426   32.3478 H       1  RES11       0.0446
      9 O7          0.2603   -2.3847   29.8417 O.3     1  RES11      -0.5061
     10 H57         1.0445   -2.6716   29.7450 H       1  RES11       0.2922
     11 N7          2.8681   -2.2676   29.9333 N.2     1  RES11      -0.2549
     12 N8          2.1343    6.1865   34.7440 N.2     1  RES11      -0.2549
     13 O8         -0.1831    5.3906   35.8520 O.3     1  RES11      -0.5061
     14 H58         0.4430    5.9173   35.6639 H       1  RES11       0.2922
     15 O9         10.0502    2.1196   22.3659 O.3     1  RES11      -0.5061
     16 H59         9.7501    1.5099   22.8609 H       1  RES11       0.2922
     17 N9          8.9258    1.0636   24.4628 N.2     1  RES11      -0.2549
     18 O10         7.1012   10.8146   25.8750 O.3     1  RES11      -0.5061
     19 H60         7.0360   10.7977   26.7113 H       1  RES11       0.2922
     20 N10         7.3090    9.7948   28.3169 N.2     1  RES11      -0.2549
     21 O11        12.6314   -3.5612   34.2580 O.3     1  RES11      -0.5061
     22 H61        12.2094   -3.6199   33.5344 H       1  RES11       0.2922
     23 N11        11.1132   -2.7177   32.2359 N.2     1  RES11      -0.2549
     24 N12        10.3530    6.1304   35.9475 N.2     1  RES11      -0.2549
     25 O12        12.3152    5.7078   37.5844 O.3     1  RES11      -0.5061
     26 H62        11.7998    6.1738   37.1126 H       1  RES11       0.2922
     27 C87         4.1411   -2.6192   29.3904 C.ar    1  RES11       0.0642
     28 C88         4.2394   -3.8682   28.7613 C.ar    1  RES11      -0.0360
     29 H63         3.4903   -4.4523   28.7493 H       1  RES11       0.0639
     30 C89         5.4334   -4.2541   28.1521 C.ar    1  RES11      -0.0554
     31 H64         5.5024   -5.1030   27.7334 H       1  RES11       0.0621
     32 C90         6.5176   -3.3875   28.1637 C.ar    1  RES11      -0.0314
     33 C91         6.4149   -2.1426   28.7898 C.ar    1  RES11      -0.0295
     34 C92         5.2270   -1.7556   29.3904 C.ar    1  RES11      -0.0320
     35 H65         5.1577   -0.9013   29.7998 H       1  RES11       0.0642
     36 C93         8.6423   -0.0864   25.2396 C.ar    1  RES11       0.0642
     37 C94         8.7420   -1.3300   24.6134 C.ar    1  RES11      -0.0360
     38 H66         8.9672   -1.3676   23.6919 H       1  RES11       0.0639
     39 C95         8.5201   -2.5104   25.3022 C.ar    1  RES11      -0.0554
     40 H67         8.6010   -3.3460   24.8582 H       1  RES11       0.0621
     41 C96         8.1799   -2.4593   26.6408 C.ar    1  RES11      -0.0314
     42 C97         8.0750   -1.2140   27.2786 C.ar    1  RES11      -0.0295
     43 C98         8.3138   -0.0394   26.6087 C.ar    1  RES11      -0.0320
     44 H68         8.2572    0.7929   27.0628 H       1  RES11       0.0642
     45 C99        10.3442   -2.9177   31.0500 C.ar    1  RES11       0.0642
     46 C100       10.4513   -4.1581   30.4173 C.ar    1  RES11      -0.0360
     47 H69        11.0323   -4.8178   30.7772 H       1  RES11       0.0639
     48 C101        9.7200   -4.4422   29.2693 C.ar    1  RES11      -0.0554
     49 H70         9.8142   -5.2850   28.8408 H       1  RES11       0.0621
     50 C102        8.8551   -3.4937   28.7550 C.ar    1  RES11      -0.0314
     51 C103        8.7413   -2.2375   29.3961 C.ar    1  RES11      -0.0295
     52 C104        9.4583   -1.9535   30.5270 C.ar    1  RES11      -0.0320
     53 H71         9.3613   -1.1126   30.9560 H       1  RES11       0.0642
     54 C105        3.2034    7.1047   34.5185 C.ar    1  RES11       0.0642
     55 C106        3.1409    8.3307   35.1596 C.ar    1  RES11      -0.0360
     56 H72         2.3954    8.5270   35.7147 H       1  RES11       0.0639
     57 C107        4.1508    9.2875   35.0086 C.ar    1  RES11      -0.0554
     58 H73         4.0885   10.1252   35.4505 H       1  RES11       0.0621
     59 C108        5.2515    8.9972   34.2017 C.ar    1  RES11      -0.0314
     60 C109        5.3066    7.7504   33.5517 C.ar    1  RES11      -0.0295
     61 C110        4.3048    6.8147   33.6791 C.ar    1  RES11      -0.0320
     62 H74         4.3527    5.9884   33.2114 H       1  RES11       0.0642
     63 C111        7.1173    9.8078   29.7218 C.ar    1  RES11       0.0642
     64 C112        7.0518   11.0440   30.3649 C.ar    1  RES11      -0.0360
     65 H75         7.1472   11.8417   29.8587 H       1  RES11       0.0639
     66 C113        6.8502   11.1206   31.7401 C.ar    1  RES11      -0.0554
     67 H76         6.8137   11.9654   32.1710 H       1  RES11       0.0621
     68 C114        6.7046    9.9535   32.4772 C.ar    1  RES11      -0.0314
     69 C115        6.7596    8.7111   31.8394 C.ar    1  RES11      -0.0295
     70 C116        6.9410    8.6322   30.4669 C.ar    1  RES11      -0.0320
     71 H77         6.9468    7.7873   30.0335 H       1  RES11       0.0642
     72 C117        9.4426    7.0544   35.3770 C.ar    1  RES11       0.0642
     73 C118        9.4308    8.3219   35.9416 C.ar    1  RES11      -0.0360
     74 H78        10.0468    8.5338   36.6331 H       1  RES11       0.0639
     75 C119        8.5234    9.2876   35.5048 C.ar    1  RES11      -0.0554
     76 H79         8.5146   10.1515   35.8996 H       1  RES11       0.0621
     77 C120        7.6403    8.9747   34.4955 C.ar    1  RES11      -0.0314
     78 C121        7.6854    7.7087   33.8738 C.ar    1  RES11      -0.0295
     79 C122        8.5812    6.7502   34.3031 C.ar    1  RES11      -0.0320
     80 H80         8.6161    5.8995   33.8819 H       1  RES11       0.0642
     81 C123        2.7690   -1.2899   30.7707 C.2     1  RES11       0.0389
     82 H81         3.5582   -0.8843   31.1104 H       1  RES11       0.0837
     83 C124        1.4637   -0.7966   31.2047 C.ar    1  RES11       0.0350
     84 C125        0.2652   -1.3400   30.6979 C.ar    1  RES11       0.1255
     85 C126       -0.9470   -0.7729   31.0815 C.ar    1  RES11      -0.0190
     86 H82        -1.7598   -1.0997   30.7142 H       1  RES11       0.0654
     87 C127       -0.9751    0.2719   32.0012 C.ar    1  RES11      -0.0505
     88 H83        -1.8145    0.6321   32.2625 H       1  RES11       0.0625
     89 C128        0.1905    0.8084   32.5524 C.ar    1  RES11      -0.0170
     90 C129        1.4034    0.2714   32.1015 C.ar    1  RES11      -0.0419
     91 H84         2.2144    0.6492   32.4189 H       1  RES11       0.0631
     92 C130        2.1962    4.9953   34.2552 C.2     1  RES11       0.0389
     93 H85         2.9890    4.7384   33.7986 H       1  RES11       0.0837
     94 C131        1.1163    4.0173   34.3633 C.ar    1  RES11       0.0350
     95 C132       -0.0432    4.2522   35.1403 C.ar    1  RES11       0.1255
     96 C133       -1.0445    3.3019   35.1447 C.ar    1  RES11      -0.0190
     97 H86        -1.8072    3.4282   35.6964 H       1  RES11       0.0654
     98 C134       -0.9517    2.1705   34.3570 C.ar    1  RES11      -0.0505
     99 H87        -1.6546    1.5322   34.3797 H       1  RES11       0.0625
    100 C135        0.1574    1.9367   33.5220 C.ar    1  RES11      -0.0170
    101 C136        1.1904    2.8676   33.5940 C.ar    1  RES11      -0.0419
    102 H88         1.9810    2.7068   33.0935 H       1  RES11       0.0631
    103 C137        8.6151    2.2540   24.8487 C.2     1  RES11       0.0389
    104 H89         8.1212    2.3616   25.6527 H       1  RES11       0.0837
    105 C138        8.9943    3.4297   24.0989 C.ar    1  RES11       0.0350
    106 C139        9.7118    3.3206   22.8775 C.ar    1  RES11       0.1255
    107 C140       10.1072    4.4906   22.2214 C.ar    1  RES11      -0.0190
    108 H90        10.6069    4.4299   21.4162 H       1  RES11       0.0654
    109 C141        9.7800    5.7314   22.7306 C.ar    1  RES11      -0.0505
    110 H91        10.0577    6.5100   22.2635 H       1  RES11       0.0625
    111 C142        9.0425    5.8717   23.9284 C.ar    1  RES11      -0.0170
    112 C143        8.6788    4.7001   24.5849 C.ar    1  RES11      -0.0419
    113 H92         8.1952    4.7678   25.3987 H       1  RES11       0.0631
    114 C144        7.8843    8.7685   27.7718 C.2     1  RES11       0.0389
    115 H93         8.2299    8.0827   28.3328 H       1  RES11       0.0837
    116 C145        8.0200    8.6303   26.3322 C.ar    1  RES11       0.0350
    117 C146        7.6116    9.6433   25.4406 C.ar    1  RES11       0.1255
    118 C147        7.7407    9.4196   24.0705 C.ar    1  RES11      -0.0190
    119 H94         7.4874   10.1021   23.4603 H       1  RES11       0.0654
    120 C148        8.2289    8.2233   23.5851 C.ar    1  RES11      -0.0505
    121 H95         8.3013    8.0976   22.6455 H       1  RES11       0.0625
    122 C149        8.6216    7.1884   24.4506 C.ar    1  RES11      -0.0170
    123 C150        8.5209    7.4256   25.8201 C.ar    1  RES11      -0.0419
    124 H96         8.8007    6.7493   26.4269 H       1  RES11       0.0631
    125 C151       11.1783   -1.5543   32.7676 C.2     1  RES11       0.0389
    126 H97        10.7513   -0.8314   32.3234 H       1  RES11       0.0837
    127 C152       11.8712   -1.2857   34.0166 C.ar    1  RES11       0.0350
    128 C153       12.5474   -2.2956   34.7278 C.ar    1  RES11       0.1255
    129 C154       13.1478   -1.9711   35.9410 C.ar    1  RES11      -0.0190
    130 H98        13.6265   -2.6367   36.4218 H       1  RES11       0.0654
    131 C155       13.0551   -0.6948   36.4508 C.ar    1  RES11      -0.0505
    132 H99        13.4566   -0.5049   37.2914 H       1  RES11       0.0625
    133 C156       12.3838    0.3399   35.7665 C.ar    1  RES11      -0.0170
    134 C157       11.8126   -0.0004   34.5398 C.ar    1  RES11      -0.0419
    135 H100       11.3659    0.6734   34.0424 H       1  RES11       0.0631
    136 C158       10.3344    4.8754   35.6795 C.2     1  RES11       0.0389
    137 H101        9.6667    4.5339   35.0970 H       1  RES11       0.0837
    138 C159       11.3180    3.9654   36.2511 C.ar    1  RES11       0.0350
    139 C160       12.2864    4.4255   37.1516 C.ar    1  RES11       0.1255
    140 C161       13.2388    3.5265   37.6328 C.ar    1  RES11      -0.0190
    141 H102       13.8839    3.8175   38.2667 H       1  RES11       0.0654
    142 C162       13.2511    2.2178   37.1933 C.ar    1  RES11      -0.0505
    143 H103       13.9263    1.6327   37.5170 H       1  RES11       0.0625
    144 C163       12.3089    1.7249   36.2923 C.ar    1  RES11      -0.0170
    145 C164       11.3406    2.6249   35.8532 C.ar    1  RES11      -0.0419
    146 H104       10.6669    2.3139   35.2595 H       1  RES11       0.0631
@<TRIPOS>BOND
     1     1     2    1
     2     3     4    1
     3     5     6    1
     4     7     8    1
     5     9    10    1
     6    11    27    1
     7    12    54    1
     8    13    14    1
     9    15    16    1
    10    17    36    1
    11    18    19    1
    12    20    63    1
    13    21    22    1
    14    23    45    1
    15    24    72    1
    16    25    26    1
    17    27    28   ar
    18    28    29    1
    19    30    28   ar
    20    31    30    1
    21    32     1    1
    22    33     3    1
    23    34    27   ar
    24    35    34    1
    25    36    37   ar
    26    37    38    1
    27    39    37   ar
    28    40    39    1
    29    41     1    1
    30    42     3    1
    31    43    36   ar
    32    44    43    1
    33    45    46   ar
    34    46    47    1
    35    48    46   ar
    36    49    48    1
    37    50     1    1
    38    51     3    1
    39    52    45   ar
    40    53    52    1
    41    54    55   ar
    42    55    56    1
    43    57    55   ar
    44    58    57    1
    45    59     5    1
    46    60     7    1
    47    61    54   ar
    48    62    61    1
    49    63    64   ar
    50    64    65    1
    51    66    64   ar
    52    67    66    1
    53    68     5    1
    54    69     7    1
    55    70    63   ar
    56    71    70    1
    57    72    73   ar
    58    73    74    1
    59    75    73   ar
    60    76    75    1
    61    77     5    1
    62    78     7    1
    63    79    72   ar
    64    80    79    1
    65    81    11    2
    66    82    81    1
    67    83    81    1
    68    84     9    1
    69    85    84   ar
    70    86    85    1
    71    87    85   ar
    72    88    87    1
    73    89    87   ar
    74    90    83   ar
    75    91    90    1
    76    92    12    2
    77    93    92    1
    78    94    92    1
    79    95    13    1
    80    96    95   ar
    81    97    96    1
    82    98    96   ar
    83    99    98    1
    84   100    89    1
    85   101    94   ar
    86   102   101    1
    87   103    17    2
    88   104   103    1
    89   105   103    1
    90   106    15    1
    91   107   106   ar
    92   108   107    1
    93   109   107   ar
    94   110   109    1
    95   111   109   ar
    96   112   105   ar
    97   113   112    1
    98   114    20    2
    99   115   114    1
   100   116   114    1
   101   117    18    1
   102   118   117   ar
   103   119   118    1
   104   120   118   ar
   105   121   120    1
   106   122   111    1
   107   123   116   ar
   108   124   123    1
   109   125    23    2
   110   126   125    1
   111   127   125    1
   112   128    21    1
   113   129   128   ar
   114   130   129    1
   115   131   129   ar
   116   132   131    1
   117   133   131   ar
   118   134   127   ar
   119   135   134    1
   120   136    24    2
   121   137   136    1
   122   138   136    1
   123   139    25    1
   124   140   139   ar
   125   141   140    1
   126   142   140   ar
   127   143   142    1
   128   144   133    1
   129   145   138   ar
   130   146   145    1
   131    30    32   ar
   132    32    33   ar
   133    33    34   ar
   134    39    41   ar
   135    41    42   ar
   136    42    43   ar
   137    48    50   ar
   138    50    51   ar
   139    51    52   ar
   140    57    59   ar
   141    59    60   ar
   142    60    61   ar
   143    66    68   ar
   144    68    69   ar
   145    69    70   ar
   146    75    77   ar
   147    77    78   ar
   148    78    79   ar
   149    83    84   ar
   150    89    90   ar
   151    94    95   ar
   152    98   100   ar
   153   100   101   ar
   154   105   106   ar
   155   111   112   ar
   156   116   117   ar
   157   120   122   ar
   158   122   123   ar
   159   127   128   ar
   160   133   134   ar
   161   138   139   ar
   162   142   144   ar
   163   144   145   ar
