@<TRIPOS>MOLECULE
*****
 228 246 0 0 0
SMALL
GASTEIGER

@<TRIPOS>ATOM
      1 N1         15.0806   12.3596   16.1985 N.2     1  RES11      -0.2806
      2 N2         15.5069   14.1677   14.1446 N.2     1  RES11      -0.2806
      3 N3         11.9488   12.5657    9.0888 N.2     1  RES11      -0.2806
      4 N4         10.7030    9.9592    8.9934 N.2     1  RES11      -0.2806
      5 F1         14.6844   14.8931   21.8684 F       1  RES11      -0.2055
      6 F2         17.8478   19.5165   16.5574 F       1  RES11      -0.2055
      7 F3          8.1813   16.9361    6.7010 F       1  RES11      -0.2055
      8 F4          5.3116   10.0609    6.0350 F       1  RES11      -0.2055
      9 C1         16.3942    9.0564   15.5844 C.ar    1  RES11      -0.0445
     10 H1         17.3131    9.3017   15.6051 H       1  RES11       0.0630
     11 C2         15.4240   10.0270   15.5719 C.ar    1  RES11      -0.0061
     12 C3         15.8579   11.4255   15.7898 C.2     1  RES11       0.0301
     13 H2         16.7662   11.6421   15.6176 H       1  RES11       0.0831
     14 C4         15.6816   13.6511   16.4765 C.3     1  RES11       0.1020
     15 H3         16.6728   13.5781   16.3624 H       1  RES11       0.0619
     16 C5         15.1333   14.6896   15.4578 C.3     1  RES11       0.1020
     17 H4         14.1421   14.7783   15.5367 H       1  RES11       0.0619
     18 C6         14.5940   13.7972   13.3832 C.2     1  RES11       0.0301
     19 H5         13.6917   13.9147   13.6571 H       1  RES11       0.0831
     20 C7         14.8742   13.1658   12.0368 C.ar    1  RES11      -0.0061
     21 C8         16.2089   12.8423   11.7609 C.ar    1  RES11      -0.0445
     22 H6         16.8883   12.9858   12.4103 H       1  RES11       0.0630
     23 C9         16.5192   12.2996   10.4954 C.ar    1  RES11      -0.0061
     24 C10        15.4722   12.0465    9.6303 C.ar    1  RES11      -0.0445
     25 H7         15.6786   11.6577    8.7880 H       1  RES11       0.0630
     26 C11        14.1707   12.3074    9.8958 C.ar    1  RES11      -0.0061
     27 C12        13.8664   12.8866   11.1468 C.ar    1  RES11      -0.0445
     28 H8         12.9641   13.0823   11.3750 H       1  RES11       0.0630
     29 C13        13.0831   12.0882    8.9581 C.2     1  RES11       0.0301
     30 H9         13.2548   11.5455    8.1967 H       1  RES11       0.0831
     31 C14        10.9048   12.2657    8.1179 C.3     1  RES11       0.1020
     32 H10        11.3236   11.8639    7.3026 H       1  RES11       0.0619
     33 C15         9.9724   11.2037    8.7797 C.3     1  RES11       0.1020
     34 H11         9.6877   11.5560    9.6718 H       1  RES11       0.0619
     35 C16        17.9457   12.1196   10.1738 C.2     1  RES11       0.0301
     36 H12        18.5890   12.2109   10.8647 H       1  RES11       0.0831
     37 C17        15.3803   14.0634   17.9079 C.ar    1  RES11      -0.0206
     38 C18        14.1391   13.8129   18.4598 C.ar    1  RES11      -0.0538
     39 H13        13.4446   13.4398   17.9266 H       1  RES11       0.0622
     40 C19        13.9041   14.1103   19.8207 C.ar    1  RES11      -0.0261
     41 H14        13.0530   13.9407   20.2128 H       1  RES11       0.0646
     42 C20        14.8712   14.6217   20.5323 C.ar    1  RES11       0.1234
     43 C21        16.1125   14.9035   20.0365 C.ar    1  RES11      -0.0261
     44 H15        16.7783   15.3106   20.5759 H       1  RES11       0.0646
     45 C22        16.3595   14.5748   18.7253 C.ar    1  RES11      -0.0538
     46 H16        17.2332   14.7052   18.3747 H       1  RES11       0.0622
     47 C23        15.8157   16.0176   15.6798 C.ar    1  RES11      -0.0206
     48 C24        15.1785   17.0691   16.3167 C.ar    1  RES11      -0.0538
     49 H17        14.2671   16.9778   16.5636 H       1  RES11       0.0622
     50 C25        15.8443   18.2641   16.6051 C.ar    1  RES11      -0.0261
     51 H18        15.3879   18.9869   17.0179 H       1  RES11       0.0646
     52 C26        17.1353   18.3607   16.2877 C.ar    1  RES11       0.1234
     53 C27        17.8313   17.3953   15.6383 C.ar    1  RES11      -0.0261
     54 H19        18.7411   17.5101   15.3998 H       1  RES11       0.0646
     55 C28        17.1293   16.2055   15.3334 C.ar    1  RES11      -0.0538
     56 H20        17.5872   15.5115   14.8749 H       1  RES11       0.0622
     57 C29        10.1577   13.5337    7.7154 C.ar    1  RES11      -0.0206
     58 C30         9.9272   13.8077    6.4230 C.ar    1  RES11      -0.0538
     59 H21        10.2300   13.2050    5.7549 H       1  RES11       0.0622
     60 C31         9.2448   14.9740    6.0433 C.ar    1  RES11      -0.0261
     61 H22         9.0640   15.1618    5.1305 H       1  RES11       0.0646
     62 C32         8.8697   15.7959    6.9914 C.ar    1  RES11       0.1234
     63 C33         9.0279   15.5532    8.3461 C.ar    1  RES11      -0.0261
     64 H23         8.6859   16.1403    9.0100 H       1  RES11       0.0646
     65 C34         9.7193   14.3869    8.6656 C.ar    1  RES11      -0.0538
     66 H24         9.8880   14.1886    9.5784 H       1  RES11       0.0622
     67 C35         8.7672   10.9324    7.9934 C.ar    1  RES11      -0.0206
     68 C36         8.8275   10.4366    6.7238 C.ar    1  RES11      -0.0538
     69 H25         9.6756   10.2931    6.3234 H       1  RES11       0.0622
     70 C37         7.6766   10.1392    6.0039 C.ar    1  RES11      -0.0261
     71 H26         7.7203    9.8183    5.1097 H       1  RES11       0.0646
     72 C38         6.4715   10.3323    6.6449 C.ar    1  RES11       0.1234
     73 C39         6.3947   10.7628    7.9665 C.ar    1  RES11      -0.0261
     74 H27         5.5481   10.8254    8.3918 H       1  RES11       0.0646
     75 C40         7.5305   11.0968    8.6656 C.ar    1  RES11      -0.0538
     76 H28         7.4883   11.4203    9.5577 H       1  RES11       0.0622
     77 N1A        11.8840    6.8804   16.1985 N.2     1  RES11      -0.2806
     78 N1B        18.2274    6.8517   16.1985 N.2     1  RES11      -0.2806
     79 N2A        10.1049    6.3455   14.1446 N.2     1  RES11      -0.2806
     80 N2B        19.5802    5.5784   14.1446 N.2     1  RES11      -0.2806
     81 N3A        13.2714    4.0651    9.0888 N.2     1  RES11      -0.2806
     82 N3B        19.9719    9.4608    9.0888 N.2     1  RES11      -0.2806
     83 N4A        16.1516    4.2895    8.9934 N.2     1  RES11      -0.2806
     84 N4B        18.3374   11.8430    8.9934 N.2     1  RES11      -0.2806
     85 F1B        20.6196    5.9280   21.8684 F       1  RES11      -0.2055
     86 F1A         9.8880    5.2705   21.8684 F       1  RES11      -0.2055
     87 F2B        23.0419    0.8767   16.5574 F       1  RES11      -0.2055
     88 F2A         4.3023    5.6984   16.5574 F       1  RES11      -0.2055
     89 F3B        25.6404   10.5384    6.7010 F       1  RES11      -0.2055
     90 F3A        11.3703   -1.3829    6.7010 F       1  RES11      -0.2055
     91 F4B        21.1212   16.4612    6.0350 F       1  RES11      -0.2055
     92 F4A        18.7592   -0.4305    6.0350 F       1  RES11      -0.2055
     93 C1B        14.7100    7.3657   15.5844 C.ar    1  RES11      -0.0445
     94 C1A        14.0879    9.6696   15.5844 C.ar    1  RES11      -0.0445
     95 H1B        14.4629    6.4472   15.6051 H       1  RES11       0.0630
     96 H1A        13.4160   10.3427   15.6051 H       1  RES11       0.0630
     97 C2B        16.0356    7.7205   15.5719 C.ar    1  RES11      -0.0061
     98 C2A        13.7323    8.3441   15.5719 C.ar    1  RES11      -0.0061
     99 C3A        12.3043    8.0206   15.7898 C.2     1  RES11       0.0301
    100 C3B        17.0299    6.6455   15.7898 C.2     1  RES11       0.0301
    101 H2B        16.7632    5.7506   15.6176 H       1  RES11       0.0831
    102 H2A        11.6625    8.6989   15.6176 H       1  RES11       0.0831
    103 C4A        10.4650    6.7551   16.4765 C.3     1  RES11       0.1020
    104 C4B        19.0454    5.6854   16.4765 C.3     1  RES11       0.1020
    105 H3A        10.0326    7.6501   16.3624 H       1  RES11       0.0619
    106 H3B        18.4865    4.8635   16.3624 H       1  RES11       0.0619
    107 C5A         9.8398    5.7610   15.4578 C.3     1  RES11       0.1020
    108 C5B        20.2189    5.6410   15.4578 C.3     1  RES11       0.1020
    109 H4B        20.7913    6.4551   15.5367 H       1  RES11       0.0619
    110 H4A        10.2586    4.8583   15.5367 H       1  RES11       0.0619
    111 C6A        10.8822    5.7402   13.3832 C.2     1  RES11       0.0301
    112 C6B        19.7158    6.5542   13.3832 C.2     1  RES11       0.0301
    113 H5A        11.2317    4.9000   13.6571 H       1  RES11       0.0831
    114 H5B        20.2686    7.2770   13.6571 H       1  RES11       0.0831
    115 C7A        11.2890    6.2985   12.0368 C.ar    1  RES11      -0.0061
    116 C7B        19.0288    6.6273   12.0368 C.ar    1  RES11      -0.0061
    117 C8A        10.9018    7.6161   11.7609 C.ar    1  RES11      -0.0445
    118 C8B        18.0813    5.6332   11.7609 C.ar    1  RES11      -0.0445
    119 H6A        10.4378    8.1328   12.4103 H       1  RES11       0.0630
    120 H6B        17.8659    4.9731   12.4103 H       1  RES11       0.0630
    121 C9A        11.2167    8.1562   10.4954 C.ar    1  RES11      -0.0061
    122 C9B        17.4562    5.6358   10.4954 C.ar    1  RES11      -0.0061
    123 C10A       11.9593    7.3761    9.6303 C.ar    1  RES11      -0.0445
    124 C10B       17.7605    6.6690    9.6303 C.ar    1  RES11      -0.0445
    125 H7A        12.1928    7.7492    8.7880 H       1  RES11       0.0630
    126 H7B        17.3206    6.6847    8.7880 H       1  RES11       0.0630
    127 C11A       12.3841    6.1185    9.8958 C.ar    1  RES11      -0.0061
    128 C11B       18.6372    7.6657    9.8958 C.ar    1  RES11      -0.0061
    129 C12A       12.0346    5.5653   11.1468 C.ar    1  RES11      -0.0445
    130 C12B       19.2910    7.6396   11.1468 C.ar    1  RES11      -0.0445
    131 H8A        12.3163    4.6861   11.3750 H       1  RES11       0.0630
    132 H8B        19.9116    8.3232   11.3750 H       1  RES11       0.0630
    133 C13A       13.1177    5.2862    8.9581 C.2     1  RES11       0.0301
    134 C13B       18.9912    8.7172    8.9581 C.2     1  RES11       0.0301
    135 H9B        18.4353    8.8398    8.1967 H       1  RES11       0.0831
    136 H9A        13.5019    5.7062    8.1967 H       1  RES11       0.0831
    137 C14A       14.0532    3.3110    8.1179 C.3     1  RES11       0.1020
    138 C14B       20.2340   10.5149    8.1179 C.3     1  RES11       0.1020
    139 H10A       14.1918    3.8746    7.3026 H       1  RES11       0.0619
    140 H10B       19.6766   10.3532    7.3026 H       1  RES11       0.0619
    141 C15A       15.4391    3.0345    8.7797 C.3     1  RES11       0.1020
    142 C15B       19.7805   11.8534    8.7797 C.3     1  RES11       0.1020
    143 H11B       20.2279   11.9239    9.6718 H       1  RES11       0.0619
    144 H11A       15.2764    2.6118    9.6718 H       1  RES11       0.0619
    145 C16B       16.5870    4.4904   10.1738 C.2     1  RES11       0.0301
    146 C16A       10.6593    9.4817   10.1738 C.2     1  RES11       0.0301
    147 H12A       10.2586    9.9931   10.8647 H       1  RES11       0.0831
    148 H12B       16.3444    3.8877   10.8647 H       1  RES11       0.0831
    149 C17B       19.5531    5.7402   17.9079 C.ar    1  RES11      -0.0206
    150 C17A       10.2586    6.2881   17.9079 C.ar    1  RES11      -0.0206
    151 C18B       19.9568    6.9404   18.4598 C.ar    1  RES11      -0.0538
    152 C18A       11.0961    5.3383   18.4598 C.ar    1  RES11      -0.0538
    153 H13B       19.9809    7.7283   17.9266 H       1  RES11       0.0622
    154 H13A       11.7665    4.9235   17.9266 H       1  RES11       0.0622
    155 C19B       20.3319    6.9952   19.8207 C.ar    1  RES11      -0.0261
    156 C19A       10.9560    4.9861   19.8207 C.ar    1  RES11      -0.0261
    157 H14B       20.6106    7.8170   20.2128 H       1  RES11       0.0646
    158 H14A       11.5285    4.3338   20.2128 H       1  RES11       0.0646
    159 C20B       20.2912    5.9019   20.5323 C.ar    1  RES11       0.1234
    160 C20A       10.0296    5.5680   20.5323 C.ar    1  RES11       0.1234
    161 C21B       19.9146    4.6861   20.0365 C.ar    1  RES11      -0.0261
    162 C21A        9.1649    6.5020   20.0365 C.ar    1  RES11      -0.0261
    163 H15B       19.9342    3.9059   20.5759 H       1  RES11       0.0646
    164 H15A        8.4795    6.8751   20.5759 H       1  RES11       0.0646
    165 C22B       19.5064    4.6365   18.7253 C.ar    1  RES11      -0.0538
    166 C22A        9.3261    6.8804   18.7253 C.ar    1  RES11      -0.0538
    167 H16B       19.1825    3.8146   18.3747 H       1  RES11       0.0622
    168 H16A        8.7763    7.5718   18.3747 H       1  RES11       0.0622
    169 C23B       21.0278    4.3860   15.6798 C.ar    1  RES11      -0.0206
    170 C23A        8.3485    5.6880   15.6798 C.ar    1  RES11      -0.0206
    171 C24B       22.2571    4.4121   16.3167 C.ar    1  RES11      -0.0538
    172 C24A        7.7565    4.6104   16.3167 C.ar    1  RES11      -0.0538
    173 H17B       22.6337    5.2470   16.5636 H       1  RES11       0.0622
    174 H17A        8.2912    3.8668   16.5636 H       1  RES11       0.0622
    175 C25B       22.9590    3.2380   16.6051 C.ar    1  RES11      -0.0261
    176 C25A        6.3886    4.5895   16.6051 C.ar    1  RES11      -0.0261
    177 H18B       23.8132    3.2719   17.0179 H       1  RES11       0.0646
    178 H18A        5.9910    3.8329   17.0179 H       1  RES11       0.0646
    179 C26B       22.3972    2.0717   16.2877 C.ar    1  RES11       0.1234
    180 C26A        5.6595    5.6593   16.2877 C.ar    1  RES11       0.1234
    181 C27B       21.2131    1.9517   15.6383 C.ar    1  RES11      -0.0261
    182 C27A        6.1476    6.7447   15.6383 C.ar    1  RES11      -0.0261
    183 H19B       20.8576    1.1063   15.3998 H       1  RES11       0.0646
    184 H19A        5.5933    7.4752   15.3998 H       1  RES11       0.0646
    185 C28B       20.5337    3.1545   15.3334 C.ar    1  RES11      -0.0538
    186 C28A        7.5290    6.7316   15.3334 C.ar    1  RES11      -0.0538
    187 H20B       19.7037    3.1049   14.8749 H       1  RES11       0.0622
    188 H20A        7.9011    7.4752   14.8749 H       1  RES11       0.0622
    189 C29B       21.7057   10.5280    7.7154 C.ar    1  RES11      -0.0206
    190 C29A       13.3286    2.0299    7.7154 C.ar    1  RES11      -0.0206
    191 C30B       22.0582   10.5906    6.4230 C.ar    1  RES11      -0.0538
    192 C30A       13.2066    1.6933    6.4230 C.ar    1  RES11      -0.0538
    193 H21B       21.3849   10.6297    5.7549 H       1  RES11       0.0622
    194 H21A       13.5772    2.2569    5.7549 H       1  RES11       0.0622
    195 C31B       23.4095   10.5984    6.0433 C.ar    1  RES11      -0.0261
    196 C31A       12.5378    0.5192    6.0433 C.ar    1  RES11      -0.0261
    197 H22B       23.6625   10.6610    5.1305 H       1  RES11       0.0646
    198 H22A       12.4655    0.2687    5.1305 H       1  RES11       0.0646
    199 C32B       24.3088   10.5123    6.9914 C.ar    1  RES11       0.1234
    200 C32A       12.0135   -0.2166    6.9914 C.ar    1  RES11       0.1234
    201 C33B       24.0195   10.4967    8.3461 C.ar    1  RES11      -0.0261
    202 C33A       12.1446    0.0417    8.3461 C.ar    1  RES11      -0.0261
    203 H23B       24.6989   10.4993    9.0100 H       1  RES11       0.0646
    204 H23A       11.8072   -0.5479    9.0100 H       1  RES11       0.0646
    205 C34B       22.6638   10.4810    8.6656 C.ar    1  RES11      -0.0538
    206 C34A       12.8089    1.2237    8.6656 C.ar    1  RES11      -0.0538
    207 H24B       22.4077   10.4340    9.5784 H       1  RES11       0.0622
    208 H24A       12.8963    1.4690    9.5784 H       1  RES11       0.0622
    209 C35B       20.1481   13.0328    7.9934 C.ar    1  RES11      -0.0206
    210 C35A       16.2767    2.1265    7.9934 C.ar    1  RES11      -0.0206
    211 C36B       19.6886   13.2284    6.7238 C.ar    1  RES11      -0.0538
    212 C36A       16.6758    2.4265    6.7238 C.ar    1  RES11      -0.0538
    213 H25B       19.1403   12.5657    6.3234 H       1  RES11       0.0622
    214 H25A       16.3761    3.2328    6.3234 H       1  RES11       0.0622
    215 C37B       20.0065   14.3739    6.0039 C.ar    1  RES11      -0.0261
    216 C37A       17.5089    1.5785    6.0039 C.ar    1  RES11      -0.0261
    217 H26B       19.7067   14.4965    5.1097 H       1  RES11       0.0646
    218 H26A       17.7650    1.7768    5.1097 H       1  RES11       0.0646
    219 C38B       20.7763   15.3210    6.6449 C.ar    1  RES11       0.1234
    220 C38A       17.9442    0.4383    6.6449 C.ar    1  RES11       0.1234
    221 C39B       21.1875   15.1723    7.9665 C.ar    1  RES11      -0.0261
    222 C39A       17.6098    0.1565    7.9665 C.ar    1  RES11      -0.0261
    223 H27B       21.6650   15.8741    8.3918 H       1  RES11       0.0646
    224 H27A       17.9789   -0.6079    8.3918 H       1  RES11       0.0646
    225 C40B       20.9088   14.0216    8.6656 C.ar    1  RES11      -0.0538
    226 C40A       16.7527    0.9732    8.6656 C.ar    1  RES11      -0.0538
    227 H28B       21.2101   13.8964    9.5577 H       1  RES11       0.0622
    228 H28A       16.4936    0.7749    9.5577 H       1  RES11       0.0622
@<TRIPOS>BOND
     1     1    12    2
     2     2    16    1
     3     3    29    2
     4     4    33    1
     5     5    42    1
     6     6    52    1
     7     7    62    1
     8     8    72    1
     9     9    10    1
    10    11     9   ar
    11    12    11    1
    12    13    12    1
    13    14     1    1
    14    15    14    1
    15    16    14    1
    16    17    16    1
    17    18     2    2
    18    19    18    1
    19    20    18    1
    20    21    20   ar
    21    22    21    1
    22    23    21   ar
    23    24    23   ar
    24    25    24    1
    25    26    24   ar
    26    27    20   ar
    27    28    27    1
    28    29    26    1
    29    30    29    1
    30    31     3    1
    31    32    31    1
    32    33    31    1
    33    34    33    1
    34    35    23    1
    35    36    35    1
    36    37    14    1
    37    38    37   ar
    38    39    38    1
    39    40    38   ar
    40    41    40    1
    41    42    40   ar
    42    43    42   ar
    43    44    43    1
    44    45    37   ar
    45    46    45    1
    46    47    16    1
    47    48    47   ar
    48    49    48    1
    49    50    48   ar
    50    51    50    1
    51    52    50   ar
    52    53    52   ar
    53    54    53    1
    54    55    47   ar
    55    56    55    1
    56    57    31    1
    57    58    57   ar
    58    59    58    1
    59    60    58   ar
    60    61    60    1
    61    62    60   ar
    62    63    62   ar
    63    64    63    1
    64    65    57   ar
    65    66    65    1
    66    67    33    1
    67    68    67   ar
    68    69    68    1
    69    70    68   ar
    70    71    70    1
    71    72    70   ar
    72    73    72   ar
    73    74    73    1
    74    75    67   ar
    75    76    75    1
    76    77    99    2
    77    78   100    2
    78    79   107    1
    79    80   108    1
    80    81   133    2
    81    82   134    2
    82    83   141    1
    83    84    35    2
    84    85   159    1
    85    86   160    1
    86    87   179    1
    87    88   180    1
    88    89   199    1
    89    90   200    1
    90    91   219    1
    91    92   220    1
    92    93    95    1
    93    94    11   ar
    94    96    94    1
    95    97     9   ar
    96    98    93   ar
    97    99    98    1
    98   100    97    1
    99   101   100    1
   100   102    99    1
   101   103    77    1
   102   104    78    1
   103   105   103    1
   104   106   104    1
   105   107   103    1
   106   108   104    1
   107   109   108    1
   108   110   107    1
   109   111    79    2
   110   112    80    2
   111   113   111    1
   112   114   112    1
   113   115   111    1
   114   116   112    1
   115   117   115   ar
   116   118   116   ar
   117   119   117    1
   118   120   118    1
   119   121   117   ar
   120   122   118   ar
   121   123   121   ar
   122   124   122   ar
   123   125   123    1
   124   126   124    1
   125   127   123   ar
   126   128   124   ar
   127   129   115   ar
   128   130   116   ar
   129   131   129    1
   130   132   130    1
   131   133   127    1
   132   134   128    1
   133   135   134    1
   134   136   133    1
   135   137    81    1
   136   138    82    1
   137   139   137    1
   138   140   138    1
   139   141   137    1
   140   142    84    1
   141   143   142    1
   142   144   141    1
   143   145    83    2
   144   146     4    2
   145   147   146    1
   146   148   145    1
   147   149   104    1
   148   150   103    1
   149   151   149   ar
   150   152   150   ar
   151   153   151    1
   152   154   152    1
   153   155   151   ar
   154   156   152   ar
   155   157   155    1
   156   158   156    1
   157   159   155   ar
   158   160   156   ar
   159   161   159   ar
   160   162   160   ar
   161   163   161    1
   162   164   162    1
   163   165   149   ar
   164   166   150   ar
   165   167   165    1
   166   168   166    1
   167   169   108    1
   168   170   107    1
   169   171   169   ar
   170   172   170   ar
   171   173   171    1
   172   174   172    1
   173   175   171   ar
   174   176   172   ar
   175   177   175    1
   176   178   176    1
   177   179   175   ar
   178   180   176   ar
   179   181   179   ar
   180   182   180   ar
   181   183   181    1
   182   184   182    1
   183   185   169   ar
   184   186   170   ar
   185   187   185    1
   186   188   186    1
   187   189   138    1
   188   190   137    1
   189   191   189   ar
   190   192   190   ar
   191   193   191    1
   192   194   192    1
   193   195   191   ar
   194   196   192   ar
   195   197   195    1
   196   198   196    1
   197   199   195   ar
   198   200   196   ar
   199   201   199   ar
   200   202   200   ar
   201   203   201    1
   202   204   202    1
   203   205   189   ar
   204   206   190   ar
   205   207   205    1
   206   208   206    1
   207   209   142    1
   208   210   141    1
   209   211   209   ar
   210   212   210   ar
   211   213   211    1
   212   214   212    1
   213   215   211   ar
   214   216   212   ar
   215   217   215    1
   216   218   216    1
   217   219   215   ar
   218   220   216   ar
   219   221   219   ar
   220   222   220   ar
   221   223   221    1
   222   224   222    1
   223   225   209   ar
   224   226   210   ar
   225   227   225    1
   226   228   226    1
   227    26    27   ar
   228    43    45   ar
   229    53    55   ar
   230    63    65   ar
   231    73    75   ar
   232    93    97   ar
   233    94    98   ar
   234   121   146    1
   235   122   145    1
   236   127   129   ar
   237   128   130   ar
   238   138   142    1
   239   161   165   ar
   240   162   166   ar
   241   181   185   ar
   242   182   186   ar
   243   201   205   ar
   244   202   206   ar
   245   221   225   ar
   246   222   226   ar
