####################################################################### 
# 
# This file contains crystal structure data downloaded from the 
# Cambridge Structural Database (CSD) hosted by the Cambridge 
# Crystallographic Data Centre (CCDC).
# 
# Full information about CCDC data access policies and citation 
# guidelines are available at http://www.ccdc.cam.ac.uk/access/V1 
# 
# Audit and citation data items may have been added by the CCDC. 
# Please retain this information to preserve the provenance of 
# this file and to allow appropriate attribution of the data. 
# 
#######################################################################
@<TRIPOS>MOLECULE
867149
   228   246     1     0     0
SMALL
NO_CHARGES
****
Generated from the CSD

@<TRIPOS>ATOM
     1 N1       1.6157  20.3860  -0.7041   N.2       1 RES1   0.0000
     2 N2       1.7925  21.9296   1.7304   N.2       1 RES1   0.0000
     3 N3      -1.5363  21.4752   7.1204   N.2       1 RES1   0.0000
     4 N4      -3.8414  19.8494   6.7496   N.2       1 RES1   0.0000
     5 C1       1.2886  17.4966  -0.5915   C.ar      1 RES1   0.0000
     6 H1       2.1634  17.8159  -0.5937   H         1 RES1   0.0000
     7 C2       0.2388  18.4078  -0.5893   C.ar      1 RES1   0.0000
     8 C3       0.4871  19.8509  -0.6015   C.2       1 RES1   0.0000
     9 H2      -0.2507  20.4136  -0.5275   H         1 RES1   0.0000
    10 C4       1.6611  21.8455  -0.7173   C.3       1 RES1   0.0000
    11 H3       0.7491  22.1914  -0.6346   H         1 RES1   0.0000
    12 C5       2.4887  22.3267   0.4889   C.3       1 RES1   0.0000
    13 H4       3.3815  21.9232   0.4635   H         1 RES1   0.0000
    14 C6       2.4044  21.1416   2.5074   C.2       1 RES1   0.0000
    15 H5       3.2266  20.7967   2.2392   H         1 RES1   0.0000
    16 C7       1.8684  20.7487   3.8196   C.ar      1 RES1   0.0000
    17 C8       2.6863  20.0867   4.7091   C.ar      1 RES1   0.0000
    18 H6       3.5363  19.8210   4.4398   H         1 RES1   0.0000
    19 C9       2.2569  19.8057   6.0190   C.ar      1 RES1   0.0000
    20 C10      1.0078  20.1991   6.3921   C.ar      1 RES1   0.0000
    21 H7       0.7108  20.0100   7.2540   H         1 RES1   0.0000
    22 C11      0.1618  20.8772   5.5158   C.ar      1 RES1   0.0000
    23 C12      0.6104  21.1367   4.2235   C.ar      1 RES1   0.0000
    24 H8       0.0531  21.5783   3.6242   H         1 RES1   0.0000
    25 C13     -1.1587  21.3850   5.9120   C.2       1 RES1   0.0000
    26 H9      -1.7475  21.6524   5.2443   H         1 RES1   0.0000
    27 C14     -2.8786  22.0024   7.3478   C.3       1 RES1   0.0000
    28 H10     -3.2384  22.3446   6.5046   H         1 RES1   0.0000
    29 C15     -3.7546  20.8376   7.8389   C.3       1 RES1   0.0000
    30 H11     -3.3284  20.4213   8.6180   H         1 RES1   0.0000
    31 C16     -3.4484  18.6869   6.9836   C.2       1 RES1   0.0000
    32 H12     -3.0821  18.5081   7.8190   H         1 RES1   0.0000
    33 C17      2.2681  22.3702  -1.9942   C.ar      1 RES1   0.0000
    34 C18      3.5157  21.9462  -2.3650   C.ar      1 RES1   0.0000
    35 H13      3.9699  21.3229  -1.8452   H         1 RES1   0.0000
    36 C19      4.1129  22.4596  -3.5403   C.ar      1 RES1   0.0000
    37 H14      4.9373  22.1403  -3.8339   H         1 RES1   0.0000
    38 C20      3.4626  23.4225  -4.2268   C.ar      1 RES1   0.0000
    39 H15      3.8814  23.8006  -4.9673   H         1 RES1   0.0000
    40 C21      2.2062  23.8670  -3.8769   C.ar      1 RES1   0.0000
    41 H16      1.7755  24.5260  -4.3736   H         1 RES1   0.0000
    42 C22      1.6045  23.3050  -2.7667   C.ar      1 RES1   0.0000
    43 H17      0.7403  23.5605  -2.5361   H         1 RES1   0.0000
    44 C23      2.6003  23.8381   0.4448   C.ar      1 RES1   0.0000
    45 C24      3.7782  24.4289   0.0695   C.ar      1 RES1   0.0000
    46 H18      4.5244  23.8976  -0.0850   H         1 RES1   0.0000
    47 C25      3.8785  25.7724  -0.0839   C.ar      1 RES1   0.0000
    48 H19      4.6954  26.1505  -0.3223   H         1 RES1   0.0000
    49 C26      2.8034  26.5719   0.1059   C.ar      1 RES1   0.0000
    50 H20      2.8653  27.4863  -0.0475   H         1 RES1   0.0000
    51 C27      1.6310  26.0228   0.5242   C.ar      1 RES1   0.0000
    52 H21      0.8981  26.5668   0.6942   H         1 RES1   0.0000
    53 C28      1.5322  24.6358   0.6975   C.ar      1 RES1   0.0000
    54 H22      0.7315  24.2603   0.9866   H         1 RES1   0.0000
    55 C29     -2.8270  23.1339   8.3741   C.ar      1 RES1   0.0000
    56 C30     -2.2120  22.9781   9.5506   C.ar      1 RES1   0.0000
    57 H23     -1.8006  22.1684   9.7492   H         1 RES1   0.0000
    58 C31     -2.1752  24.0177  10.4919   C.ar      1 RES1   0.0000
    59 H24     -1.7195  23.9129  11.2942   H         1 RES1   0.0000
    60 C32     -2.8137  25.1696  10.2193   C.ar      1 RES1   0.0000
    61 H25     -2.8226  25.8542  10.8506   H         1 RES1   0.0000
    62 C33     -3.4243  25.3382   9.0639   C.ar      1 RES1   0.0000
    63 H26     -3.8475  26.1479   8.8884   H         1 RES1   0.0000
    64 C34     -3.4552  24.3293   8.0927   C.ar      1 RES1   0.0000
    65 H27     -3.8888  24.4621   7.2804   H         1 RES1   0.0000
    66 C35     -5.1364  21.2948   8.2130   C.ar      1 RES1   0.0000
    67 C36     -5.4844  21.3919   9.5230   C.ar      1 RES1   0.0000
    68 H28     -4.8532  21.1875  10.1730   H         1 RES1   0.0000
    69 C37     -6.7644  21.7904   9.9247   C.ar      1 RES1   0.0000
    70 H29     -7.0210  21.7955  10.8175   H         1 RES1   0.0000
    71 C38     -7.6316  22.1786   8.8939   C.ar      1 RES1   0.0000
    72 H30     -8.4648  22.5234   9.1290   H         1 RES1   0.0000
    73 C39     -7.3366  22.0815   7.6038   C.ar      1 RES1   0.0000
    74 H31     -7.9678  22.2859   6.9516   H         1 RES1   0.0000
    75 C40     -6.0418  21.6626   7.2551   C.ar      1 RES1   0.0000
    76 H32     -5.7970  21.6320   6.3589   H         1 RES1   0.0000
    77 N1A     -3.7157  16.7488  -0.7041   N.2       1 RES1   0.0000
    78 N1B      2.1000  13.9503  -0.7041   N.2       1 RES1   0.0000
    79 N2A     -5.1408  16.1301   1.7304   N.2       1 RES1   0.0000
    80 N2B      3.3483  13.0254   1.7304   N.2       1 RES1   0.0000
    81 N3A     -3.0829  13.4745   7.1204   N.2       1 RES1   0.0000
    82 N3B      4.6192  16.1355   7.1204   N.2       1 RES1   0.0000
    83 N4A     -0.5223  12.2911   6.7496   N.2       1 RES1   0.0000
    84 N4B      4.3638  18.9447   6.7496   N.2       1 RES1   0.0000
    85 C1A     -1.0498  17.9102  -0.5915   C.ar      1 RES1   0.0000
    86 C1B     -0.2388  15.6783  -0.5915   C.ar      1 RES1   0.0000
    87 H1A     -1.7637  18.5081  -0.5937   H         1 RES1   0.0000
    88 H1B     -0.3996  14.7610  -0.5937   H         1 RES1   0.0000
    89 C2A     -1.3140  16.5454  -0.5893   C.ar      1 RES1   0.0000
    90 C2B      1.0752  16.1319  -0.5893   C.ar      1 RES1   0.0000
    91 C3A     -2.6879  16.0389  -0.6015   C.2       1 RES1   0.0000
    92 C3B      2.2008  15.1953  -0.6015   C.2       1 RES1   0.0000
    93 H2A     -2.8064  15.1186  -0.5275   H         1 RES1   0.0000
    94 H2B      3.0571  15.5529  -0.5275   H         1 RES1   0.0000
    95 C4A     -5.0023  16.0583  -0.7173   C.3       1 RES1   0.0000
    96 C4B      3.3412  13.1812  -0.7173   C.3       1 RES1   0.0000
    97 H3A     -4.8459  15.0956  -0.6346   H         1 RES1   0.0000
    98 H3B      4.0967  13.7981  -0.6346   H         1 RES1   0.0000
    99 C5A     -5.8329  16.5345   0.4889   C.3       1 RES1   0.0000
   100 C5B      3.3442  12.2239   0.4889   C.3       1 RES1   0.0000
   101 H4A     -5.9298  17.5094   0.4635   H         1 RES1   0.0000
   102 H4B      2.5483  11.6525   0.4635   H         1 RES1   0.0000
   103 C6A     -4.7643  17.0540   2.5074   C.2       1 RES1   0.0000
   104 C6B      2.3600  12.8895   2.5074   C.2       1 RES1   0.0000
   105 H5A     -4.8768  17.9385   2.2392   H         1 RES1   0.0000
   106 H5B      1.6502  12.3498   2.2392   H         1 RES1   0.0000
   107 C7A     -4.1561  16.7863   3.8196   C.ar      1 RES1   0.0000
   108 C7B      2.2877  13.5501   3.8196   C.ar      1 RES1   0.0000
   109 C8A     -3.9917  17.8256   4.7091   C.ar      1 RES1   0.0000
   110 C8B      1.3054  13.1728   4.7091   C.ar      1 RES1   0.0000
   111 H6A     -4.1867  18.6946   4.4398   H         1 RES1   0.0000
   112 H6B      0.6503  12.5695   4.4398   H         1 RES1   0.0000
   113 C9A     -3.5337  17.5942   6.0190   C.ar      1 RES1   0.0000
   114 C9B      1.2768  13.6852   6.0190   C.ar      1 RES1   0.0000
   115 C10A    -3.2498  16.3158   6.3921   C.ar      1 RES1   0.0000
   116 C10B     2.2420  14.5702   6.3921   C.ar      1 RES1   0.0000
   117 H7A     -2.9376  16.1531   7.2540   H         1 RES1   0.0000
   118 H7B      2.2268  14.9220   7.2540   H         1 RES1   0.0000
   119 C11A    -3.4141  15.2441   5.5158   C.ar      1 RES1   0.0000
   120 C11B     3.2523  14.9638   5.5158   C.ar      1 RES1   0.0000
   121 C12A    -3.8631  15.5028   4.2235   C.ar      1 RES1   0.0000
   122 C12B     3.2527  14.4456   4.2235   C.ar      1 RES1   0.0000
   123 H8A     -3.9669  14.7994   3.6242   H         1 RES1   0.0000
   124 H8B      3.9139  14.7074   3.6242   H         1 RES1   0.0000
   125 C13A    -3.1936  13.8466   5.9120   C.2       1 RES1   0.0000
   126 C13B     4.3523  15.8535   5.9120   C.2       1 RES1   0.0000
   127 H9A     -3.1308  13.2029   5.2443   H         1 RES1   0.0000
   128 H9B      4.8783  16.2297   5.2443   H         1 RES1   0.0000
   129 C14A    -2.8683  12.0484   7.3478   C.3       1 RES1   0.0000
   130 C14B     5.7469  17.0343   7.3478   C.3       1 RES1   0.0000
   131 H10A    -2.9848  11.5657   6.5046   H         1 RES1   0.0000
   132 H10B     6.2232  17.1748   6.5046   H         1 RES1   0.0000
   133 C15A    -1.4216  11.8722   7.8389   C.3       1 RES1   0.0000
   134 C15B     5.1762  18.3753   7.8389   C.3       1 RES1   0.0000
   135 H11A    -1.2741  12.4494   8.6180   H         1 RES1   0.0000
   136 H11B     4.6025  18.2144   8.6180   H         1 RES1   0.0000
   137 C16A     0.2879  13.2127   6.9836   C.2       1 RES1   0.0000
   138 C16B     3.1606  19.1855   6.9836   C.2       1 RES1   0.0000
   139 H12A     0.2595  13.6193   7.8190   H         1 RES1   0.0000
   140 H12B     2.8226  18.9577   7.8190   H         1 RES1   0.0000
   141 C17A    -5.7602  16.3217  -1.9942   C.ar      1 RES1   0.0000
   142 C17B     3.4921  12.3932  -1.9942   C.ar      1 RES1   0.0000
   143 C18A    -6.0168  17.6141  -2.3650   C.ar      1 RES1   0.0000
   144 C18B     2.5011  11.5248  -2.3650   C.ar      1 RES1   0.0000
   145 H13A    -5.7041  18.3191  -1.8452   H         1 RES1   0.0000
   146 H13B     1.7342  11.4431  -1.8452   H         1 RES1   0.0000
   147 C19A    -6.7600  17.8747  -3.5403   C.ar      1 RES1   0.0000
   148 C19B     2.6471  10.7509  -3.5403   C.ar      1 RES1   0.0000
   149 H14A    -6.8957  18.7482  -3.8339   H         1 RES1   0.0000
   150 H14B     1.9584  10.1966  -3.8339   H         1 RES1   0.0000
   151 C20A    -7.2688  16.8300  -4.2268   C.ar      1 RES1   0.0000
   152 C20B     3.8062  10.8326  -4.2268   C.ar      1 RES1   0.0000
   153 H15A    -7.8056  17.0037  -4.9673   H         1 RES1   0.0000
   154 H15B     3.9242  10.2809  -4.9673   H         1 RES1   0.0000
   155 C21A    -7.0255  15.5197  -3.8769   C.ar      1 RES1   0.0000
   156 C21B     4.8193  11.6985  -3.8769   C.ar      1 RES1   0.0000
   157 H16A    -7.3809  14.8172  -4.3736   H         1 RES1   0.0000
   158 H16B     5.6053  11.7419  -4.3736   H         1 RES1   0.0000
   159 C22A    -6.2380  15.2796  -2.7667   C.ar      1 RES1   0.0000
   160 C22B     4.6335  12.5005  -2.7667   C.ar      1 RES1   0.0000
   161 H17A    -6.0271  14.4034  -2.5361   H         1 RES1   0.0000
   162 H17B     5.2868  13.1212  -2.5361   H         1 RES1   0.0000
   163 C23A    -7.1976  15.8755   0.4448   C.ar      1 RES1   0.0000
   164 C23B     4.5972  11.3715   0.4448   C.ar      1 RES1   0.0000
   165 C24A    -8.2981  16.6001   0.0695   C.ar      1 RES1   0.0000
   166 C24B     4.5200  10.0561   0.0695   C.ar      1 RES1   0.0000
   167 H18A    -8.2111  17.5120  -0.0850   H         1 RES1   0.0000
   168 H18B     3.6868   9.6755  -0.0850   H         1 RES1   0.0000
   169 C25A    -9.5118  16.0152  -0.0839   C.ar      1 RES1   0.0000
   170 C25B     5.6334   9.2975  -0.0839   C.ar      1 RES1   0.0000
   171 H19A   -10.2477  16.5337  -0.3223   H         1 RES1   0.0000
   172 H19B     5.5522   8.4009  -0.3223   H         1 RES1   0.0000
   173 C26A    -9.6667  14.6844   0.1059   C.ar      1 RES1   0.0000
   174 C26B     6.8633   9.8288   0.1059   C.ar      1 RES1   0.0000
   175 H20A   -10.4895  14.2808  -0.0475   H         1 RES1   0.0000
   176 H20B     7.6242   9.3179  -0.0475   H         1 RES1   0.0000
   177 C27A    -8.6049  13.9437   0.5242   C.ar      1 RES1   0.0000
   178 C27B     6.9739  11.1187   0.5242   C.ar      1 RES1   0.0000
   179 H21A    -8.7096  13.0369   0.6942   H         1 RES1   0.0000
   180 H21B     7.8115  11.4814   0.6942   H         1 RES1   0.0000
   181 C28A    -7.3543  14.5516   0.6975   C.ar      1 RES1   0.0000
   182 C28B     5.8221  11.8977   0.6975   C.ar      1 RES1   0.0000
   183 H22A    -6.6288  14.0459   0.9866   H         1 RES1   0.0000
   184 H22B     5.8973  12.7789   0.9866   H         1 RES1   0.0000
   185 C29A    -3.8740  11.5274   8.3741   C.ar      1 RES1   0.0000
   186 C29B     6.7010  16.4239   8.3741   C.ar      1 RES1   0.0000
   187 C30A    -4.0466  12.1378   9.5506   C.ar      1 RES1   0.0000
   188 C30B     6.2586  15.9692   9.5506   C.ar      1 RES1   0.0000
   189 H23A    -3.5511  12.8990   9.7492   H         1 RES1   0.0000
   190 H23B     5.3517  16.0177   9.7492   H         1 RES1   0.0000
   191 C31A    -4.9653  11.6500  10.4919   C.ar      1 RES1   0.0000
   192 C31B     7.1405  15.4175  10.4919   C.ar      1 RES1   0.0000
   193 H24A    -5.1025  12.0970  11.2942   H         1 RES1   0.0000
   194 H24B     6.8220  15.0752  11.2942   H         1 RES1   0.0000
   195 C32A    -5.6437  10.5210  10.2193   C.ar      1 RES1   0.0000
   196 C32B     8.4574  15.3945  10.2193   C.ar      1 RES1   0.0000
   197 H25A    -6.2321  10.1710  10.8506   H         1 RES1   0.0000
   198 H25B     9.0547  15.0599  10.8506   H         1 RES1   0.0000
   199 C33A    -5.4844   9.9080   9.0639   C.ar      1 RES1   0.0000
   200 C33B     8.9087  15.8389   9.0639   C.ar      1 RES1   0.0000
   201 H26A    -5.9740   9.1366   8.8884   H         1 RES1   0.0000
   202 H26B     9.8215  15.8006   8.8884   H         1 RES1   0.0000
   203 C34A    -4.5952  10.3856   8.0927   C.ar      1 RES1   0.0000
   204 C34B     8.0504  16.3702   8.0927   C.ar      1 RES1   0.0000
   205 H27A    -4.4934   9.9437   7.2804   H         1 RES1   0.0000
   206 H27B     8.3822  16.6793   7.2804   H         1 RES1   0.0000
   207 C35A    -1.1267  10.4469   8.2130   C.ar      1 RES1   0.0000
   208 C35B     6.2631  19.3434   8.2130   C.ar      1 RES1   0.0000
   209 C36A    -1.0367  10.0970   9.5230   C.ar      1 RES1   0.0000
   210 C36B     6.5211  19.5962   9.5230   C.ar      1 RES1   0.0000
   211 H28A    -1.1753  10.7458  10.1730   H         1 RES1   0.0000
   212 H28B     6.0286  19.1518  10.1730   H         1 RES1   0.0000
   213 C37A    -0.7418   8.7892   9.9247   C.ar      1 RES1   0.0000
   214 C37B     7.5062  20.5056   9.9247   C.ar      1 RES1   0.0000
   215 H29A    -0.6179   8.5644  10.8175   H         1 RES1   0.0000
   216 H29B     7.6389  20.7252  10.8175   H         1 RES1   0.0000
   217 C38A    -0.6444   7.8441   8.8939   C.ar      1 RES1   0.0000
   218 C38B     8.2760  21.0624   8.8939   C.ar      1 RES1   0.0000
   219 H30A    -0.5265   6.9501   9.1290   H         1 RES1   0.0000
   220 H30B     8.9912  21.6116   9.1290   H         1 RES1   0.0000
   221 C39A    -0.7079   8.1481   7.6038   C.ar      1 RES1   0.0000
   222 C39B     8.0445  20.8555   7.6038   C.ar      1 RES1   0.0000
   223 H31A    -0.5692   7.4993   6.9516   H         1 RES1   0.0000
   224 H31B     8.5370  21.2999   6.9516   H         1 RES1   0.0000
   225 C40A    -0.9925   9.4788   7.2551   C.ar      1 RES1   0.0000
   226 C40B     7.0343  19.9436   7.2551   C.ar      1 RES1   0.0000
   227 H32A    -1.0883   9.7062   6.3589   H         1 RES1   0.0000
   228 H32B     6.8854  19.7469   6.3589   H         1 RES1   0.0000
@<TRIPOS>BOND
     1     1     8    2
     2     2    12    1
     3     3    25    2
     4     4    29    1
     5     5     6    1
     6     7     5   ar
     7     8     7    1
     8     9     8    1
     9    10     1    1
    10    11    10    1
    11    12    10    1
    12    13    12    1
    13    14     2    2
    14    15    14    1
    15    16    14    1
    16    17    16   ar
    17    18    17    1
    18    19    17   ar
    19    20    19   ar
    20    21    20    1
    21    22    20   ar
    22    23    16   ar
    23    24    23    1
    24    25    22    1
    25    26    25    1
    26    27     3    1
    27    28    27    1
    28    29    27    1
    29    30    29    1
    30    31     4    2
    31    32    31    1
    32    33    10    1
    33    34    33   ar
    34    35    34    1
    35    36    34   ar
    36    37    36    1
    37    38    36   ar
    38    39    38    1
    39    40    38   ar
    40    41    40    1
    41    42    33   ar
    42    43    42    1
    43    44    12    1
    44    45    44   ar
    45    46    45    1
    46    47    45   ar
    47    48    47    1
    48    49    47   ar
    49    50    49    1
    50    51    49   ar
    51    52    51    1
    52    53    44   ar
    53    54    53    1
    54    55    27    1
    55    56    55   ar
    56    57    56    1
    57    58    56   ar
    58    59    58    1
    59    60    58   ar
    60    61    60    1
    61    62    60   ar
    62    63    62    1
    63    64    55   ar
    64    65    64    1
    65    66    29    1
    66    67    66   ar
    67    68    67    1
    68    69    67   ar
    69    70    69    1
    70    71    69   ar
    71    72    71    1
    72    73    71   ar
    73    74    73    1
    74    75    66   ar
    75    76    75    1
    76    77    91    2
    77    78    92    2
    78    79    99    1
    79    80   100    1
    80    81   125    2
    81    82   126    2
    82    83   133    1
    83    84   134    1
    84    85     7   ar
    85    86    88    1
    86    87    85    1
    87    89    85   ar
    88    90     5   ar
    89    91    89    1
    90    92    90    1
    91    93    91    1
    92    94    92    1
    93    95    77    1
    94    96    78    1
    95    97    95    1
    96    98    96    1
    97    99    95    1
    98   100    96    1
    99   101    99    1
   100   102   100    1
   101   103    79    2
   102   104    80    2
   103   105   103    1
   104   106   104    1
   105   107   103    1
   106   108   104    1
   107   109   107   ar
   108   110   108   ar
   109   111   109    1
   110   112   110    1
   111   113    31    1
   112   114   110   ar
   113   115   113   ar
   114   116   114   ar
   115   117   115    1
   116   118   116    1
   117   119   115   ar
   118   120   116   ar
   119   121   107   ar
   120   122   108   ar
   121   123   121    1
   122   124   122    1
   123   125   119    1
   124   126   120    1
   125   127   125    1
   126   128   126    1
   127   129    81    1
   128   130    82    1
   129   131   129    1
   130   132   130    1
   131   133   129    1
   132   134   130    1
   133   135   133    1
   134   136   134    1
   135   137    83    2
   136   138    19    1
   137   139   137    1
   138   140   138    1
   139   141    95    1
   140   142    96    1
   141   143   141   ar
   142   144   142   ar
   143   145   143    1
   144   146   144    1
   145   147   143   ar
   146   148   144   ar
   147   149   147    1
   148   150   148    1
   149   151   147   ar
   150   152   148   ar
   151   153   151    1
   152   154   152    1
   153   155   151   ar
   154   156   152   ar
   155   157   155    1
   156   158   156    1
   157   159   141   ar
   158   160   142   ar
   159   161   159    1
   160   162   160    1
   161   163    99    1
   162   164   100    1
   163   165   163   ar
   164   166   164   ar
   165   167   165    1
   166   168   166    1
   167   169   165   ar
   168   170   166   ar
   169   171   169    1
   170   172   170    1
   171   173   169   ar
   172   174   170   ar
   173   175   173    1
   174   176   174    1
   175   177   173   ar
   176   178   174   ar
   177   179   177    1
   178   180   178    1
   179   181   163   ar
   180   182   164   ar
   181   183   181    1
   182   184   182    1
   183   185   129    1
   184   186   130    1
   185   187   185   ar
   186   188   186   ar
   187   189   187    1
   188   190   188    1
   189   191   187   ar
   190   192   188   ar
   191   193   191    1
   192   194   192    1
   193   195   191   ar
   194   196   192   ar
   195   197   195    1
   196   198   196    1
   197   199   195   ar
   198   200   196   ar
   199   201   199    1
   200   202   200    1
   201   203   185   ar
   202   204   186   ar
   203   205   203    1
   204   206   204    1
   205   207   133    1
   206   208   134    1
   207   209   207   ar
   208   210   208   ar
   209   211   209    1
   210   212   210    1
   211   213   209   ar
   212   214   210   ar
   213   215   213    1
   214   216   214    1
   215   217   213   ar
   216   218   214   ar
   217   219   217    1
   218   220   218    1
   219   221   217   ar
   220   222   218   ar
   221   223   221    1
   222   224   222    1
   223   225   207   ar
   224   226   208   ar
   225   227   225    1
   226   228   226    1
   227    22    23   ar
   228    40    42   ar
   229    51    53   ar
   230    62    64   ar
   231    73    75   ar
   232    84   138    2
   233    86    89   ar
   234    86    90   ar
   235   109   113   ar
   236   114   137    1
   237   119   121   ar
   238   120   122   ar
   239   155   159   ar
   240   156   160   ar
   241   177   181   ar
   242   178   182   ar
   243   199   203   ar
   244   200   204   ar
   245   221   225   ar
   246   222   226   ar
@<TRIPOS>SUBSTRUCTURE
     1 RES1        1 GROUP             0 ****  ****    0  
@<TRIPOS>CRYSIN
   29.4940   29.4940   11.0360   90.0000   90.0000  120.0000   232     1
 

