@<TRIPOS>MOLECULE
*****
 108 126 0 0 0
SMALL
GASTEIGER

@<TRIPOS>ATOM
      1 O1          0.0000    7.4520   18.2352 O.2     6  RES66      -0.2522
      2 O2          3.3022    6.2887   17.1850 O.2     6  RES66      -0.2522
      3 O3          3.2846    3.8801   14.9642 O.2     6  RES66      -0.2522
      4 O4          0.0000    2.7722   14.0328 O.2     6  RES66      -0.2522
      5 O5          0.0000    3.3854   22.8637 O.2     6  RES66      -0.2522
      6 O6          3.1984    2.1779   21.7185 O.2     6  RES66      -0.2522
      7 O7          3.2924   -0.3683   19.4850 O.2     6  RES66      -0.2522
      8 O8          0.0000   -1.5947   18.3350 O.2     6  RES66      -0.2522
      9 N1          1.1099    5.2061   21.9387 N.am    6  RES66      -0.2471
     10 N2          1.0942    6.8514   20.1757 N.am    6  RES66      -0.2471
     11 N3          3.2669    6.0311   19.4819 N.am    6  RES66      -0.2471
     12 N4          3.3335    4.4332   21.3399 N.am    6  RES66      -0.2471
     13 N5          4.4825    3.0725   20.0394 N.am    6  RES66      -0.2471
     14 N6          4.6313    4.7588   18.2843 N.am    6  RES66      -0.2471
     15 N7          4.5451    2.9397   16.6766 N.am    6  RES66      -0.2471
     16 N8          4.5999    1.2375   18.4697 N.am    6  RES66      -0.2471
     17 N9          3.2787   -0.0284   17.1803 N.am    6  RES66      -0.2471
     18 N10         3.3276    1.6216   15.3777 N.am    6  RES66      -0.2471
     19 N11         1.1099    0.8882   14.7346 N.am    6  RES66      -0.2471
     20 N12         1.1040   -0.8203   16.4722 N.am    6  RES66      -0.2471
     21 C1          0.0000    7.0948   19.4042 C.2     6  RES66       0.3102
     22 C2          0.7497    6.5369   21.5633 C.3     6  RES66       0.1358
     23 H1          1.1196    7.2149   22.2000 H       6  RES66       0.0749
     24 C3          0.0000    4.4633   22.3236 C.2     6  RES66       0.3102
     25 C4          2.4272    7.1754   19.7543 C.3     6  RES66       0.0902
     26 H2          2.8559    7.7206   20.4608 H       6  RES66       0.0676
     27 H3          2.3744    7.7301   18.9370 H       6  RES66       0.0676
     28 C5          2.4311    4.8489   22.4091 C.3     6  RES66       0.0902
     29 H4          2.3489    4.1108   23.0633 H       6  RES66       0.0676
     30 H5          2.8246    5.6249   22.8780 H       6  RES66       0.0676
     31 C6          4.0656    5.3357   20.4592 C.3     6  RES66       0.1358
     32 H6          4.6293    5.9726   20.9851 H       6  RES66       0.0749
     33 C7          3.6917    5.7419   18.2051 C.2     6  RES66       0.3102
     34 C8          4.9347    4.4001   19.6165 C.3     6  RES66       0.1358
     35 H7          5.9055    4.5312   19.8145 H       6  RES66       0.0749
     36 C9          3.6193    3.1262   21.0453 C.2     6  RES66       0.3102
     37 C10         5.1989    4.1614   17.0868 C.3     6  RES66       0.0902
     38 H8          5.1421    4.8173   16.3471 H       6  RES66       0.0676
     39 H9          6.1561    3.9717   17.2484 H       6  RES66       0.0676
     40 C11         5.1284    1.8397   19.6339 C.3     6  RES66       0.0902
     41 H10         6.0895    2.0246   19.4834 H       6  RES66       0.0676
     42 H11         5.0619    1.1917   20.3800 H       6  RES66       0.0676
     43 C12         4.9660    1.6247   17.1042 C.3     6  RES66       0.1358
     44 H12         5.9369    1.4698   16.9205 H       6  RES66       0.0749
     45 C13         3.6486    2.9002   15.6200 C.2     6  RES66       0.3102
     46 C14         4.0440    0.6954   16.2124 C.3     6  RES66       0.1358
     47 H13         4.5980    0.0727   15.6596 H       6  RES66       0.0749
     48 C15         3.6525    0.2371   18.4602 C.2     6  RES66       0.3102
     49 C16         2.4370    1.2581   14.3053 C.3     6  RES66       0.0902
     50 H14         2.8324    0.4994   13.8079 H       6  RES66       0.0676
     51 H15         2.3665    2.0214   13.6796 H       6  RES66       0.0676
     52 C17         2.4566   -1.1806   16.8651 C.3     6  RES66       0.0902
     53 H16         2.4155   -1.7717   17.6587 H       6  RES66       0.0676
     54 H17         2.8833   -1.6880   16.1301 H       6  RES66       0.0676
     55 C18         0.0000    1.6184   14.4700 C.2     6  RES66       0.3102
     56 C19         0.7751   -0.4789   15.1353 C.3     6  RES66       0.1358
     57 H18         1.1392   -1.1474   14.4874 H       6  RES66       0.0749
     58 C20         0.0000   -1.1221   17.2135 C.2     6  RES66       0.3102
     59 O2C        -3.3022    6.2887   17.1850 O.2     6  RES66      -0.2522
     60 O3C        -3.2846    3.8801   14.9642 O.2     6  RES66      -0.2522
     61 O6C        -3.1984    2.1779   21.7185 O.2     6  RES66      -0.2522
     62 O7C        -3.2924   -0.3683   19.4850 O.2     6  RES66      -0.2522
     63 N1C        -1.1099    5.2061   21.9387 N.am    6  RES66      -0.2471
     64 N2C        -1.0942    6.8514   20.1757 N.am    6  RES66      -0.2471
     65 N3C        -3.2669    6.0311   19.4819 N.am    6  RES66      -0.2471
     66 N4C        -3.3335    4.4332   21.3399 N.am    6  RES66      -0.2471
     67 N5C        -4.4825    3.0725   20.0394 N.am    6  RES66      -0.2471
     68 N6C        -4.6313    4.7588   18.2843 N.am    6  RES66      -0.2471
     69 N7C        -4.5451    2.9397   16.6766 N.am    6  RES66      -0.2471
     70 N8C        -4.5999    1.2375   18.4697 N.am    6  RES66      -0.2471
     71 N9C        -3.2787   -0.0284   17.1803 N.am    6  RES66      -0.2471
     72 N10C       -3.3276    1.6216   15.3777 N.am    6  RES66      -0.2471
     73 N11C       -1.1099    0.8882   14.7346 N.am    6  RES66      -0.2471
     74 N12C       -1.1040   -0.8203   16.4722 N.am    6  RES66      -0.2471
     75 C2C        -0.7497    6.5369   21.5633 C.3     6  RES66       0.1358
     76 H1C        -1.1196    7.2149   22.2000 H       6  RES66       0.0749
     77 C4C        -2.4272    7.1754   19.7543 C.3     6  RES66       0.0902
     78 H2C        -2.8559    7.7206   20.4608 H       6  RES66       0.0676
     79 H3C        -2.3744    7.7301   18.9370 H       6  RES66       0.0676
     80 C5C        -2.4311    4.8489   22.4091 C.3     6  RES66       0.0902
     81 H4C        -2.3489    4.1108   23.0633 H       6  RES66       0.0676
     82 H5C        -2.8246    5.6249   22.8780 H       6  RES66       0.0676
     83 C6C        -4.0656    5.3357   20.4592 C.3     6  RES66       0.1358
     84 H6C        -4.6293    5.9726   20.9851 H       6  RES66       0.0749
     85 C7C        -3.6917    5.7419   18.2051 C.2     6  RES66       0.3102
     86 C8C        -4.9347    4.4001   19.6165 C.3     6  RES66       0.1358
     87 H7C        -5.9055    4.5312   19.8145 H       6  RES66       0.0749
     88 C9C        -3.6193    3.1262   21.0453 C.2     6  RES66       0.3102
     89 C10C       -5.1989    4.1614   17.0868 C.3     6  RES66       0.0902
     90 H8C        -5.1421    4.8173   16.3471 H       6  RES66       0.0676
     91 H9C        -6.1561    3.9717   17.2484 H       6  RES66       0.0676
     92 C11C       -5.1284    1.8397   19.6339 C.3     6  RES66       0.0902
     93 H10C       -6.0895    2.0246   19.4834 H       6  RES66       0.0676
     94 H11C       -5.0619    1.1917   20.3800 H       6  RES66       0.0676
     95 C12C       -4.9660    1.6247   17.1042 C.3     6  RES66       0.1358
     96 H12C       -5.9369    1.4698   16.9205 H       6  RES66       0.0749
     97 C13C       -3.6486    2.9002   15.6200 C.2     6  RES66       0.3102
     98 C14C       -4.0440    0.6954   16.2124 C.3     6  RES66       0.1358
     99 H13C       -4.5980    0.0727   15.6596 H       6  RES66       0.0749
    100 C15C       -3.6525    0.2371   18.4602 C.2     6  RES66       0.3102
    101 C16C       -2.4370    1.2581   14.3053 C.3     6  RES66       0.0902
    102 H14C       -2.8324    0.4994   13.8079 H       6  RES66       0.0676
    103 H15C       -2.3665    2.0214   13.6796 H       6  RES66       0.0676
    104 C17C       -2.4566   -1.1806   16.8651 C.3     6  RES66       0.0902
    105 H16C       -2.4155   -1.7717   17.6587 H       6  RES66       0.0676
    106 H17C       -2.8833   -1.6880   16.1301 H       6  RES66       0.0676
    107 C19C       -0.7751   -0.4789   15.1353 C.3     6  RES66       0.1358
    108 H18C       -1.1392   -1.1474   14.4874 H       6  RES66       0.0749
@<TRIPOS>BOND
     1     1    21    2
     2     2    33    2
     3     3    45    2
     4     4    55    2
     5     5    24    2
     6     6    36    2
     7     7    48    2
     8     8    58    2
     9     9    22    1
    10    10    21   am
    11    11    25    1
    12    12    28    1
    13    13    34    1
    14    14    33   am
    15    15    37    1
    16    16    40    1
    17    17    46    1
    18    18    45   am
    19    19    49    1
    20    20    52    1
    21    21    64   am
    22    22    10    1
    23    23    22    1
    24    24     9   am
    25    25    10    1
    26    26    25    1
    27    27    25    1
    28    28     9    1
    29    29    28    1
    30    30    28    1
    31    31    11    1
    32    32    31    1
    33    33    11   am
    34    34    14    1
    35    35    34    1
    36    36    12   am
    37    37    14    1
    38    38    37    1
    39    39    37    1
    40    40    13    1
    41    41    40    1
    42    42    40    1
    43    43    15    1
    44    44    43    1
    45    45    15   am
    46    46    18    1
    47    47    46    1
    48    48    16   am
    49    49    18    1
    50    50    49    1
    51    51    49    1
    52    52    17    1
    53    53    52    1
    54    54    52    1
    55    55    19   am
    56    56    19    1
    57    57    56    1
    58    58    20   am
    59    59    85    2
    60    60    97    2
    61    61    88    2
    62    62   100    2
    63    63    24   am
    64    64    75    1
    65    65    77    1
    66    66    80    1
    67    67    86    1
    68    68    85   am
    69    69    89    1
    70    70    92    1
    71    71    98    1
    72    72    97   am
    73    73    55   am
    74    74    58   am
    75    75    22    1
    76    76    75    1
    77    77    64    1
    78    78    77    1
    79    79    77    1
    80    80    63    1
    81    81    80    1
    82    82    80    1
    83    83    65    1
    84    84    83    1
    85    85    65   am
    86    86    68    1
    87    87    86    1
    88    88    66   am
    89    89    68    1
    90    90    89    1
    91    91    89    1
    92    92    67    1
    93    93    92    1
    94    94    92    1
    95    95    69    1
    96    96    95    1
    97    97    69   am
    98    98    72    1
    99    99    98    1
   100   100    70   am
   101   101    72    1
   102   102   101    1
   103   103   101    1
   104   104    71    1
   105   105   104    1
   106   106   104    1
   107   107    56    1
   108   108   107    1
   109    12    31    1
   110    13    36   am
   111    16    43    1
   112    17    48   am
   113    20    56    1
   114    31    34    1
   115    43    46    1
   116    63    75    1
   117    66    83    1
   118    67    88   am
   119    70    95    1
   120    71   100   am
   121    73   101    1
   122    73   107    1
   123    74   104    1
   124    74   107    1
   125    83    86    1
   126    95    98    1
