####################################################################### 
# 
# This file contains crystal structure data downloaded from the 
# Cambridge Structural Database (CSD) hosted by the Cambridge 
# Crystallographic Data Centre (CCDC).
# 
# Full information about CCDC data access policies and citation 
# guidelines are available at http://www.ccdc.cam.ac.uk/access/V1 
# 
# Audit and citation data items may have been added by the CCDC. 
# Please retain this information to preserve the provenance of 
# this file and to allow appropriate attribution of the data. 
# 
#######################################################################
@<TRIPOS>MOLECULE
904717
   316   344     1     0     0
SMALL
NO_CHARGES
****
Generated from the CSD

@<TRIPOS>ATOM
     1 O3       5.2726   2.3127   7.0015   O.3       1 RES1   0.0000
     2 O4       3.7556  -3.6661  15.1743   O.3       1 RES1   0.0000
     3 N7       7.5742  -2.3493  15.8935   N.2       1 RES1   0.0000
     4 N13      8.9966   2.4724   8.7110   N.2       1 RES1   0.0000
     5 N19      2.6770  -7.5713  15.8795   N.2       1 RES1   0.0000
     6 N27      4.8355   1.4862   2.9824   N.2       1 RES1   0.0000
     7 C1       9.6424   2.7717  14.4329   C.3       1 RES1   0.0000
     8 H1      10.5474   3.0277  14.7738   H         1 RES1   0.0000
     9 C2       7.2806   2.1028  13.5102   C.3       1 RES1   0.0000
    10 H2       6.3785   1.8518  13.1607   H         1 RES1   0.0000
    11 C3       7.9267   1.0317  14.3695   C.ar      1 RES1   0.0000
    12 C4       9.1840   1.4081  14.8741   C.ar      1 RES1   0.0000
    13 C5       9.8688   0.5087  15.7182   C.ar      1 RES1   0.0000
    14 H5      10.7175   0.7444  16.0716   H         1 RES1   0.0000
    15 C6       9.3139  -0.7034  16.0305   C.ar      1 RES1   0.0000
    16 H6       9.7926  -1.3047  16.5886   H         1 RES1   0.0000
    17 C7       8.0388  -1.0764  15.5357   C.ar      1 RES1   0.0000
    18 C8       7.3763  -0.1999  14.7007   C.ar      1 RES1   0.0000
    19 H8       6.5274  -0.4419  14.3473   H         1 RES1   0.0000
    20 C9       8.3286   2.3753  12.4043   C.ar      1 RES1   0.0000
    21 C10      9.5432   2.7283  12.8989   C.ar      1 RES1   0.0000
    22 C11     10.5984   2.9840  11.9949   C.ar      1 RES1   0.0000
    23 H11     11.4556   3.2276  12.3232   H         1 RES1   0.0000
    24 C12     10.3837   2.8793  10.6436   C.ar      1 RES1   0.0000
    25 H12     11.1017   3.0408  10.0431   H         1 RES1   0.0000
    26 C13      9.1435   2.5452  10.1424   C.ar      1 RES1   0.0000
    27 C14      8.1038   2.2375  11.0686   C.ar      1 RES1   0.0000
    28 H14      7.2579   1.9387  10.7540   H         1 RES1   0.0000
    29 C15      7.2808   3.3836  14.3791   C.ar      1 RES1   0.0000
    30 C16      8.5342   3.7142  14.8553   C.ar      1 RES1   0.0000
    31 C17      8.6669   4.8427  15.6810   C.ar      1 RES1   0.0000
    32 H17      9.5177   5.0794  16.0328   H         1 RES1   0.0000
    33 C18      7.5396   5.6189  15.9844   C.ar      1 RES1   0.0000
    34 H18      7.6284   6.3894  16.5317   H         1 RES1   0.0000
    35 C19      6.2690   5.2554  15.4752   C.ar      1 RES1   0.0000
    36 C20      6.1178   4.1480  14.6580   C.ar      1 RES1   0.0000
    37 H20      5.2729   3.9089  14.2982   H         1 RES1   0.0000
    38 C21      0.0000   0.0000   0.4214   C.3       1 RES1   0.0000
    39 H21     -0.0000  -0.0000  -0.5791   H         1 RES1   0.0000
    40 C22      0.0000   0.0000   3.0248   C.3       1 RES1   0.0000
    41 H22      0.0000   0.0000   4.0250   H         1 RES1   0.0000
    42 C23      1.3266   0.4380   2.3982   C.ar      1 RES1   0.0000
    43 C24      1.3451   0.4564   1.0090   C.ar      1 RES1   0.0000
    44 C25      2.4393   0.8207   0.2763   C.ar      1 RES1   0.0000
    45 H25      2.4254   0.8233  -0.6747   H         1 RES1   0.0000
    46 C26      3.5996   1.1963   1.0033   C.ar      1 RES1   0.0000
    47 H26      4.3814   1.4599   0.5299   H         1 RES1   0.0000
    48 C27      3.6172   1.1842   2.3992   C.ar      1 RES1   0.0000
    49 C28      2.4644   0.7920   3.1132   C.ar      1 RES1   0.0000
    50 H28      2.4649   0.7707   4.0638   H         1 RES1   0.0000
    51 C31      7.8555   2.6486   8.1710   C.2       1 RES1   0.0000
    52 H31      7.1136   2.8672   8.7221   H         1 RES1   0.0000
    53 C32      7.6603   2.5274   6.7502   C.ar      1 RES1   0.0000
    54 C33      6.4132   2.3732   6.1631   C.ar      1 RES1   0.0000
    55 C331     4.9877   1.0532   7.5247   C.3       1 RES1   0.0000
    56 H33A     4.7991   0.4314   6.7911   H         1 RES1   0.0000
    57 H33B     4.2053   1.1127   8.1120   H         1 RES1   0.0000
    58 H33C     5.7589   0.7313   8.0371   H         1 RES1   0.0000
    59 C34      6.2080   2.2004   4.8044   C.ar      1 RES1   0.0000
    60 C35      4.9409   1.9676   4.2129   C.2       1 RES1   0.0000
    61 H35      4.1536   2.1596   4.7075   H         1 RES1   0.0000
    62 C36      7.3696   2.3122   3.9518   C.ar      1 RES1   0.0000
    63 H36      7.2670   2.2806   3.0091   H         1 RES1   0.0000
    64 C37      8.6464   2.4666   4.5074   C.ar      1 RES1   0.0000
    65 C38      8.7643   2.5665   5.8607   C.ar      1 RES1   0.0000
    66 H38      9.6346   2.6673   6.2301   H         1 RES1   0.0000
    67 C39      9.8910   2.5158   3.5966   C.3       1 RES1   0.0000
    68 C391     9.4907   2.5268   2.1097   C.3       1 RES1   0.0000
    69 H39A    10.2862   2.6804   1.5588   H         1 RES1   0.0000
    70 H39B     8.8404   3.2434   1.9518   H         1 RES1   0.0000
    71 H39C     9.0909   1.6625   1.8716   H         1 RES1   0.0000
    72 C392    10.7024   1.2155   3.8412   C.3       1 RES1   0.0000
    73 H39D    10.9164   1.1364   4.7954   H         1 RES1   0.0000
    74 H39E    11.5330   1.2468   3.3219   H         1 RES1   0.0000
    75 H39F    10.1723   0.4419   3.5597   H         1 RES1   0.0000
    76 C393    10.6945   3.7503   3.9464   C.3       1 RES1   0.0000
    77 H39G    10.2694   4.2140   4.6997   H         1 RES1   0.0000
    78 H39H    10.7296   4.3482   3.1719   H         1 RES1   0.0000
    79 H39I    11.6059   3.4880   4.1956   H         1 RES1   0.0000
    80 C41      6.3860  -2.7081  15.7009   C.2       1 RES1   0.0000
    81 H41      5.7650  -2.1149  15.2960   H         1 RES1   0.0000
    82 C42      5.9591  -4.0709  16.1140   C.ar      1 RES1   0.0000
    83 C43      4.6788  -4.5233  15.8467   C.ar      1 RES1   0.0000
    84 C431     3.5902  -3.8142  13.7579   C.3       1 RES1   0.0000
    85 H43A     3.5325  -4.7664  13.5330   H         1 RES1   0.0000
    86 H43B     4.3587  -3.4143  13.2978   H         1 RES1   0.0000
    87 H43C     2.7686  -3.3591  13.4761   H         1 RES1   0.0000
    88 C44      4.3013  -5.8181  16.1292   C.ar      1 RES1   0.0000
    89 C45      2.9812  -6.3520  15.7603   C.2       1 RES1   0.0000
    90 H45      2.3282  -5.7528  15.4175   H         1 RES1   0.0000
    91 C46      5.2128  -6.6435  16.7962   C.ar      1 RES1   0.0000
    92 H46      4.9646  -7.5363  17.0022   H         1 RES1   0.0000
    93 C47      6.4841  -6.1861  17.1695   C.ar      1 RES1   0.0000
    94 C48      6.8370  -4.9213  16.7530   C.ar      1 RES1   0.0000
    95 H48      7.7256  -4.6217  16.9143   H         1 RES1   0.0000
    96 C49      7.5170  -7.0765  17.8356   C.3       1 RES1   0.0000
    97 C491     8.2505  -6.3105  18.8997   C.3       1 RES1   0.0000
    98 H49A     8.5472  -5.4503  18.5352   H         1 RES1   0.0000
    99 H49B     9.0287  -6.8261  19.1944   H         1 RES1   0.0000
   100 H49C     7.6542  -6.1553  19.6597   H         1 RES1   0.0000
   101 C492     6.9221  -8.4372  18.3258   C.3       1 RES1   0.0000
   102 H49D     6.1993  -8.2649  18.9669   H         1 RES1   0.0000
   103 H49E     7.6269  -8.9646  18.7601   H         1 RES1   0.0000
   104 H49F     6.5669  -8.9331  17.5606   H         1 RES1   0.0000
   105 C493     8.6394  -7.5008  16.7721   C.3       1 RES1   0.0000
   106 H49G     8.2526  -8.1229  16.1207   H         1 RES1   0.0000
   107 H49H     9.3840  -7.9361  17.2374   H         1 RES1   0.0000
   108 H49I     8.9664  -6.7024  16.3068   H         1 RES1   0.0000
   109 O3      -4.6392   3.4099   7.0015   O.3       1 RES1   0.0000
   110 O4       1.2971   5.0855  15.1743   O.3       1 RES1   0.0000
   111 N7      -1.7526   7.7341  15.8935   N.2       1 RES1   0.0000
   112 N13     -6.6395   6.5551   8.7110   N.2       1 RES1   0.0000
   113 N19      5.2184   6.1040  15.8795   N.2       1 RES1   0.0000
   114 N27     -3.7049   3.4446   2.9824   N.2       1 RES1   0.0000
   115 C1      -7.2216   6.9647  14.4329   C.3       1 RES1   0.0000
   116 H1      -7.8957   7.6205  14.7738   H         1 RES1   0.0000
   117 C2      -5.4614   5.2538  13.5102   C.3       1 RES1   0.0000
   118 H2      -4.7930   4.5981  13.1607   H         1 RES1   0.0000
   119 C3      -4.8568   6.3489  14.3695   C.ar      1 RES1   0.0000
   120 C4      -5.8115   7.2496  14.8741   C.ar      1 RES1   0.0000
   121 C5      -5.3750   8.2923  15.7182   C.ar      1 RES1   0.0000
   122 H5      -6.0034   8.9094  16.0716   H         1 RES1   0.0000
   123 C6      -4.0478   8.4178  16.0305   C.ar      1 RES1   0.0000
   124 H6      -3.7664   9.1330  16.5886   H         1 RES1   0.0000
   125 C7      -3.0872   7.5000  15.5357   C.ar      1 RES1   0.0000
   126 C8      -3.5150   6.4880  14.7007   C.ar      1 RES1   0.0000
   127 H8      -2.8810   5.8738  14.3473   H         1 RES1   0.0000
   128 C9      -6.2214   6.0251  12.4043   C.ar      1 RES1   0.0000
   129 C10     -7.1344   6.9005  12.8989   C.ar      1 RES1   0.0000
   130 C11     -7.8834   7.6865  11.9949   C.ar      1 RES1   0.0000
   131 H11     -8.5229   8.3070  12.3232   H         1 RES1   0.0000
   132 C12     -7.6854   7.5529  10.6436   C.ar      1 RES1   0.0000
   133 H12     -8.1843   8.0939  10.0431   H         1 RES1   0.0000
   134 C13     -6.7760   6.6459  10.1424   C.ar      1 RES1   0.0000
   135 C14     -5.9896   5.8993  11.0686   C.ar      1 RES1   0.0000
   136 H14     -5.3079   5.3162  10.7540   H         1 RES1   0.0000
   137 C15     -6.5707   4.6136  14.3791   C.ar      1 RES1   0.0000
   138 C16     -7.4837   5.5337  14.8553   C.ar      1 RES1   0.0000
   139 C17     -8.5273   5.0844  15.6810   C.ar      1 RES1   0.0000
   140 H17     -9.1578   5.7028  16.0328   H         1 RES1   0.0000
   141 C18     -8.6359   3.7200  15.9844   C.ar      1 RES1   0.0000
   142 H18     -9.3476   3.4117  16.5317   H         1 RES1   0.0000
   143 C19     -7.6858   2.8014  15.4752   C.ar      1 RES1   0.0000
   144 C20     -6.6511   3.2242  14.6580   C.ar      1 RES1   0.0000
   145 H20     -6.0216   2.6121  14.2982   H         1 RES1   0.0000
   146 C23     -1.0426   0.9299   2.3982   C.ar      1 RES1   0.0000
   147 C24     -1.0678   0.9367   1.0090   C.ar      1 RES1   0.0000
   148 C25     -1.9304   1.7022   0.2763   C.ar      1 RES1   0.0000
   149 H25     -1.9257   1.6888  -0.6747   H         1 RES1   0.0000
   150 C26     -2.8359   2.5192   1.0033   C.ar      1 RES1   0.0000
   151 H26     -3.4550   3.0645   0.5299   H         1 RES1   0.0000
   152 C27     -2.8342   2.5405   2.3992   C.ar      1 RES1   0.0000
   153 C28     -1.9181   1.7382   3.1132   C.ar      1 RES1   0.0000
   154 H28     -1.8999   1.7493   4.0638   H         1 RES1   0.0000
   155 C31     -6.2215   5.4787   8.1710   C.2       1 RES1   0.0000
   156 H31     -6.0399   4.7269   8.7221   H         1 RES1   0.0000
   157 C32     -6.0189   5.3704   6.7502   C.ar      1 RES1   0.0000
   158 C33     -5.2618   4.3674   6.1631   C.ar      1 RES1   0.0000
   159 C331    -3.4060   3.7929   7.5247   C.3       1 RES1   0.0000
   160 H33A    -2.7731   3.9404   6.7911   H         1 RES1   0.0000
   161 H33B    -3.0663   3.0855   8.1120   H         1 RES1   0.0000
   162 H33C    -3.5128   4.6217   8.0371   H         1 RES1   0.0000
   163 C34     -5.0096   4.2761   4.8044   C.ar      1 RES1   0.0000
   164 C35     -4.1745   3.2952   4.2129   C.2       1 RES1   0.0000
   165 H35     -3.9471   2.5174   4.7075   H         1 RES1   0.0000
   166 C36     -5.6872   5.2262   3.9518   C.ar      1 RES1   0.0000
   167 H36     -5.6086   5.1531   3.0091   H         1 RES1   0.0000
   168 C37     -6.4593   6.2547   4.5074   C.ar      1 RES1   0.0000
   169 C38     -6.6048   6.3068   5.8607   C.ar      1 RES1   0.0000
   170 H38     -7.1273   7.0102   6.2301   H         1 RES1   0.0000
   171 C39     -7.1242   7.3080   3.5966   C.3       1 RES1   0.0000
   172 C391    -6.9336   6.9557   2.1097   C.3       1 RES1   0.0000
   173 H39A    -7.4644   7.5678   1.5588   H         1 RES1   0.0000
   174 H39B    -7.2290   6.0343   1.9518   H         1 RES1   0.0000
   175 H39C    -5.9852   7.0418   1.8716   H         1 RES1   0.0000
   176 C392    -6.4039   8.6608   3.8412   C.3       1 RES1   0.0000
   177 H39D    -6.4423   8.8857   4.7954   H         1 RES1   0.0000
   178 H39E    -6.8463   9.3645   3.3219   H         1 RES1   0.0000
   179 H39F    -5.4688   8.5885   3.5597   H         1 RES1   0.0000
   180 C393    -8.5951   7.3866   3.9464   C.3       1 RES1   0.0000
   181 H39G    -8.7842   6.7866   4.6997   H         1 RES1   0.0000
   182 H39H    -9.1304   7.1180   3.1719   H         1 RES1   0.0000
   183 H39I    -8.8236   8.3070   4.1956   H         1 RES1   0.0000
   184 C41     -0.8477   6.8845  15.7009   C.2       1 RES1   0.0000
   185 H41     -1.0509   6.0501  15.2960   H         1 RES1   0.0000
   186 C42      0.5460   7.1962  16.1140   C.ar      1 RES1   0.0000
   187 C43      1.5779   6.3136  15.8467   C.ar      1 RES1   0.0000
   188 C431     1.5081   5.0163  13.7579   C.3       1 RES1   0.0000
   189 H43A     2.3616   5.4424  13.5330   H         1 RES1   0.0000
   190 H43B     0.7776   5.4819  13.2978   H         1 RES1   0.0000
   191 H43C     1.5248   4.0772  13.4761   H         1 RES1   0.0000
   192 C44      2.8880   6.6340  16.1292   C.ar      1 RES1   0.0000
   193 C45      4.0104   5.7578  15.7603   C.2       1 RES1   0.0000
   194 H45      3.8180   4.8927  15.4175   H         1 RES1   0.0000
   195 C46      3.1471   7.8362  16.7962   C.ar      1 RES1   0.0000
   196 H46      4.0443   8.0676  17.0022   H         1 RES1   0.0000
   197 C47      2.1152   8.7084  17.1695   C.ar      1 RES1   0.0000
   198 C48      0.8435   8.3817  16.7530   C.ar      1 RES1   0.0000
   199 H48      0.1397   9.0015  16.9143   H         1 RES1   0.0000
   200 C49      2.3699  10.0481  17.8356   C.3       1 RES1   0.0000
   201 C491     1.3398  10.3004  18.8997   C.3       1 RES1   0.0000
   202 H49A     0.4465  10.1273  18.5352   H         1 RES1   0.0000
   203 H49B     1.3972  11.2321  19.1944   H         1 RES1   0.0000
   204 H49C     1.5035   9.7064  19.6597   H         1 RES1   0.0000
   205 C492     3.8458  10.2133  18.3258   C.3       1 RES1   0.0000
   206 H49D     4.0580   9.5012  18.9669   H         1 RES1   0.0000
   207 H49E     3.9501  11.0874  18.7601   H         1 RES1   0.0000
   208 H49F     4.4528  10.1536  17.5606   H         1 RES1   0.0000
   209 C493     2.1761  11.2324  16.7721   C.3       1 RES1   0.0000
   210 H49G     2.9083  11.2084  16.1207   H         1 RES1   0.0000
   211 H49H     2.1809  12.0949  17.2374   H         1 RES1   0.0000
   212 H49I     1.3213  11.1163  16.3068   H         1 RES1   0.0000
   213 O3      -0.6334  -5.7226   7.0015   O.3       1 RES1   0.0000
   214 O4      -5.0527  -1.4194  15.1743   O.3       1 RES1   0.0000
   215 N7      -5.8216  -5.3848  15.8935   N.2       1 RES1   0.0000
   216 N13     -2.3572  -9.0275   8.7110   N.2       1 RES1   0.0000
   217 N19     -7.8954   1.4673  15.8795   N.2       1 RES1   0.0000
   218 N27     -1.1307  -4.9308   2.9824   N.2       1 RES1   0.0000
   219 C1      -2.4208  -9.7364  14.4329   C.3       1 RES1   0.0000
   220 H1      -2.6517 -10.6481  14.7738   H         1 RES1   0.0000
   221 C2      -1.8193  -7.3566  13.5102   C.3       1 RES1   0.0000
   222 H2      -1.5855  -6.4499  13.1607   H         1 RES1   0.0000
   223 C3      -3.0699  -7.3806  14.3695   C.ar      1 RES1   0.0000
   224 C4      -3.3726  -8.6577  14.8741   C.ar      1 RES1   0.0000
   225 C5      -4.4938  -8.8010  15.7182   C.ar      1 RES1   0.0000
   226 H5      -4.7140  -9.6538  16.0716   H         1 RES1   0.0000
   227 C6      -5.2661  -7.7144  16.0305   C.ar      1 RES1   0.0000
   228 H6      -6.0262  -7.8283  16.5886   H         1 RES1   0.0000
   229 C7      -4.9516  -6.4236  15.5357   C.ar      1 RES1   0.0000
   230 C8      -3.8613  -6.2881  14.7007   C.ar      1 RES1   0.0000
   231 H8      -3.6464  -5.4319  14.3473   H         1 RES1   0.0000
   232 C9      -2.1072  -8.4004  12.4043   C.ar      1 RES1   0.0000
   233 C10     -2.4088  -9.6288  12.8989   C.ar      1 RES1   0.0000
   234 C11     -2.7150 -10.6705  11.9949   C.ar      1 RES1   0.0000
   235 H11     -2.9326 -11.5346  12.3232   H         1 RES1   0.0000
   236 C12     -2.6983 -10.4322  10.6436   C.ar      1 RES1   0.0000
   237 H12     -2.9174 -11.1348  10.0431   H         1 RES1   0.0000
   238 C13     -2.3675  -9.1911  10.1424   C.ar      1 RES1   0.0000
   239 C14     -2.1142  -8.1368  11.0686   C.ar      1 RES1   0.0000
   240 H14     -1.9500  -7.2548  10.7540   H         1 RES1   0.0000
   241 C15     -0.7101  -7.9971  14.3791   C.ar      1 RES1   0.0000
   242 C16     -1.0505  -9.2479  14.8553   C.ar      1 RES1   0.0000
   243 C17     -0.1396  -9.9271  15.6810   C.ar      1 RES1   0.0000
   244 H17     -0.3599 -10.7823  16.0328   H         1 RES1   0.0000
   245 C18      1.0963  -9.3389  15.9844   C.ar      1 RES1   0.0000
   246 H18      1.7192  -9.8011  16.5317   H         1 RES1   0.0000
   247 C19      1.4168  -8.0569  15.4752   C.ar      1 RES1   0.0000
   248 C20      0.5334  -7.3721  14.6580   C.ar      1 RES1   0.0000
   249 H20      0.7487  -6.5209  14.2982   H         1 RES1   0.0000
   250 C23     -0.2840  -1.3678   2.3982   C.ar      1 RES1   0.0000
   251 C24     -0.2773  -1.3931   1.0090   C.ar      1 RES1   0.0000
   252 C25     -0.5089  -2.5229   0.2763   C.ar      1 RES1   0.0000
   253 H25     -0.4997  -2.5121  -0.6747   H         1 RES1   0.0000
   254 C26     -0.7638  -3.7155   1.0033   C.ar      1 RES1   0.0000
   255 H26     -0.9264  -4.5244   0.5299   H         1 RES1   0.0000
   256 C27     -0.7830  -3.7247   2.3992   C.ar      1 RES1   0.0000
   257 C28     -0.5463  -2.5302   3.1132   C.ar      1 RES1   0.0000
   258 H28     -0.5650  -2.5200   4.0638   H         1 RES1   0.0000
   259 C31     -1.6340  -8.1273   8.1710   C.2       1 RES1   0.0000
   260 H31     -1.0737  -7.5942   8.7221   H         1 RES1   0.0000
   261 C32     -1.6414  -7.8977   6.7502   C.ar      1 RES1   0.0000
   262 C33     -1.1513  -6.7406   6.1631   C.ar      1 RES1   0.0000
   263 C331    -1.5817  -4.8461   7.5247   C.3       1 RES1   0.0000
   264 H33A    -2.0259  -4.3718   6.7911   H         1 RES1   0.0000
   265 H33B    -1.1390  -4.1982   8.1120   H         1 RES1   0.0000
   266 H33C    -2.2462  -5.3530   8.0371   H         1 RES1   0.0000
   267 C34     -1.1984  -6.4765   4.8044   C.ar      1 RES1   0.0000
   268 C35     -0.7665  -5.2628   4.2129   C.2       1 RES1   0.0000
   269 H35     -0.2065  -4.6770   4.7075   H         1 RES1   0.0000
   270 C36     -1.6824  -7.5384   3.9518   C.ar      1 RES1   0.0000
   271 H36     -1.6584  -7.4337   3.0091   H         1 RES1   0.0000
   272 C37     -2.1871  -8.7213   4.5074   C.ar      1 RES1   0.0000
   273 C38     -2.1594  -8.8733   5.8607   C.ar      1 RES1   0.0000
   274 H38     -2.5074  -9.6775   6.2301   H         1 RES1   0.0000
   275 C39     -2.7668  -9.8237   3.5966   C.3       1 RES1   0.0000
   276 C391    -2.5570  -9.4826   2.1097   C.3       1 RES1   0.0000
   277 H39A    -2.8217 -10.2483   1.5588   H         1 RES1   0.0000
   278 H39B    -1.6113  -9.2777   1.9518   H         1 RES1   0.0000
   279 H39C    -3.1057  -8.7042   1.8716   H         1 RES1   0.0000
   280 C392    -4.2985  -9.8763   3.8412   C.3       1 RES1   0.0000
   281 H39D    -4.4741 -10.0221   4.7954   H         1 RES1   0.0000
   282 H39E    -4.6867 -10.6113   3.3219   H         1 RES1   0.0000
   283 H39F    -4.7034  -9.0304   3.5597   H         1 RES1   0.0000
   284 C393    -2.0995 -11.1369   3.9464   C.3       1 RES1   0.0000
   285 H39G    -1.4853 -11.0006   4.6997   H         1 RES1   0.0000
   286 H39H    -1.5992 -11.4662   3.1719   H         1 RES1   0.0000
   287 H39I    -2.7823 -11.7950   4.1956   H         1 RES1   0.0000
   288 C41     -5.5382  -4.1764  15.7009   C.2       1 RES1   0.0000
   289 H41     -4.7140  -3.9352  15.2960   H         1 RES1   0.0000
   290 C42     -6.5050  -3.1253  16.1140   C.ar      1 RES1   0.0000
   291 C43     -6.2567  -1.7903  15.8467   C.ar      1 RES1   0.0000
   292 C431    -5.0983  -1.2021  13.7579   C.3       1 RES1   0.0000
   293 H43A    -5.8941  -0.6760  13.5330   H         1 RES1   0.0000
   294 H43B    -5.1362  -2.0675  13.2978   H         1 RES1   0.0000
   295 H43C    -4.2934  -0.7181  13.4761   H         1 RES1   0.0000
   296 C44     -7.1892  -0.8160  16.1292   C.ar      1 RES1   0.0000
   297 C45     -6.9916   0.5942  15.7603   C.2       1 RES1   0.0000
   298 H45     -6.1462   0.8602  15.4175   H         1 RES1   0.0000
   299 C46     -8.3598  -1.1927  16.7962   C.ar      1 RES1   0.0000
   300 H46     -9.0089  -0.5314  17.0022   H         1 RES1   0.0000
   301 C47     -8.5993  -2.5224  17.1695   C.ar      1 RES1   0.0000
   302 C48     -7.6805  -3.4604  16.7530   C.ar      1 RES1   0.0000
   303 H48     -7.8653  -4.3797  16.9143   H         1 RES1   0.0000
   304 C49     -9.8869  -2.9716  17.8356   C.3       1 RES1   0.0000
   305 C491    -9.5903  -3.9899  18.8997   C.3       1 RES1   0.0000
   306 H49A    -8.9937  -4.6770  18.5352   H         1 RES1   0.0000
   307 H49B   -10.4259  -4.4060  19.1944   H         1 RES1   0.0000
   308 H49C    -9.1578  -3.5511  19.6597   H         1 RES1   0.0000
   309 C492   -10.7679  -1.7761  18.3258   C.3       1 RES1   0.0000
   310 H49D   -10.2573  -1.2363  18.9669   H         1 RES1   0.0000
   311 H49E   -11.5771  -2.1228  18.7601   H         1 RES1   0.0000
   312 H49F   -11.0197  -1.2205  17.5606   H         1 RES1   0.0000
   313 C493   -10.8156  -3.7316  16.7721   C.3       1 RES1   0.0000
   314 H49G   -11.1609  -3.0855  16.1207   H         1 RES1   0.0000
   315 H49H   -11.5649  -4.1588  17.2374   H         1 RES1   0.0000
   316 H49I   -10.2877  -4.4139  16.3068   H         1 RES1   0.0000
@<TRIPOS>BOND
     1     1    54    1
     2     1    55    1
     3     2    83    1
     4     2    84    1
     5     3    17    1
     6     3    80    2
     7     4    26    1
     8     4    51    2
     9     5    89    2
    10     5   247    1
    11     6    48    1
    12     6    60    2
    13     7     8    1
    14     7    12    1
    15     7    21    1
    16     7    30    1
    17     9    10    1
    18     9    11    1
    19     9    20    1
    20     9    29    1
    21    11    12   ar
    22    11    18   ar
    23    12    13   ar
    24    13    14    1
    25    13    15   ar
    26    15    16    1
    27    15    17   ar
    28    17    18   ar
    29    18    19    1
    30    20    21   ar
    31    20    27   ar
    32    21    22   ar
    33    22    23    1
    34    22    24   ar
    35    24    25    1
    36    24    26   ar
    37    26    27   ar
    38    27    28    1
    39    29    30   ar
    40    29    36   ar
    41    30    31   ar
    42    31    32    1
    43    31    33   ar
    44    33    34    1
    45    33    35   ar
    46    35    36   ar
    47    35   113    1
    48    36    37    1
    49    38    39    1
    50    38    43    1
    51    38   147    1
    52    38   251    1
    53    40    41    1
    54    40    42    1
    55    40   146    1
    56    40   250    1
    57    42    43   ar
    58    42    49   ar
    59    43    44   ar
    60    44    45    1
    61    44    46   ar
    62    46    47    1
    63    46    48   ar
    64    48    49   ar
    65    49    50    1
    66    51    52    1
    67    51    53    1
    68    53    54   ar
    69    53    65   ar
    70    54    59   ar
    71    55    56    1
    72    55    57    1
    73    55    58    1
    74    59    60    1
    75    59    62   ar
    76    60    61    1
    77    62    63    1
    78    62    64   ar
    79    64    65   ar
    80    64    67    1
    81    65    66    1
    82    67    68    1
    83    67    72    1
    84    67    76    1
    85    68    69    1
    86    68    70    1
    87    68    71    1
    88    72    73    1
    89    72    74    1
    90    72    75    1
    91    76    77    1
    92    76    78    1
    93    76    79    1
    94    80    81    1
    95    80    82    1
    96    82    83   ar
    97    82    94   ar
    98    83    88   ar
    99    84    85    1
   100    84    86    1
   101    84    87    1
   102    88    89    1
   103    88    91   ar
   104    89    90    1
   105    91    92    1
   106    91    93   ar
   107    93    94   ar
   108    93    96    1
   109    94    95    1
   110    96    97    1
   111    96   101    1
   112    96   105    1
   113    97    98    1
   114    97    99    1
   115    97   100    1
   116   101   102    1
   117   101   103    1
   118   101   104    1
   119   105   106    1
   120   105   107    1
   121   105   108    1
   122   109   158    1
   123   109   159    1
   124   110   187    1
   125   110   188    1
   126   111   125    1
   127   111   184    2
   128   112   134    1
   129   112   155    2
   130   113   193    2
   131   114   152    1
   132   114   164    2
   133   115   116    1
   134   115   120    1
   135   115   129    1
   136   115   138    1
   137   117   118    1
   138   117   119    1
   139   117   128    1
   140   117   137    1
   141   119   120   ar
   142   119   126   ar
   143   120   121   ar
   144   121   122    1
   145   121   123   ar
   146   123   124    1
   147   123   125   ar
   148   125   126   ar
   149   126   127    1
   150   128   129   ar
   151   128   135   ar
   152   129   130   ar
   153   130   131    1
   154   130   132   ar
   155   132   133    1
   156   132   134   ar
   157   134   135   ar
   158   135   136    1
   159   137   138   ar
   160   137   144   ar
   161   138   139   ar
   162   139   140    1
   163   139   141   ar
   164   141   142    1
   165   141   143   ar
   166   143   144   ar
   167   143   217    1
   168   144   145    1
   169   146   147   ar
   170   146   153   ar
   171   147   148   ar
   172   148   149    1
   173   148   150   ar
   174   150   151    1
   175   150   152   ar
   176   152   153   ar
   177   153   154    1
   178   155   156    1
   179   155   157    1
   180   157   158   ar
   181   157   169   ar
   182   158   163   ar
   183   159   160    1
   184   159   161    1
   185   159   162    1
   186   163   164    1
   187   163   166   ar
   188   164   165    1
   189   166   167    1
   190   166   168   ar
   191   168   169   ar
   192   168   171    1
   193   169   170    1
   194   171   172    1
   195   171   176    1
   196   171   180    1
   197   172   173    1
   198   172   174    1
   199   172   175    1
   200   176   177    1
   201   176   178    1
   202   176   179    1
   203   180   181    1
   204   180   182    1
   205   180   183    1
   206   184   185    1
   207   184   186    1
   208   186   187   ar
   209   186   198   ar
   210   187   192   ar
   211   188   189    1
   212   188   190    1
   213   188   191    1
   214   192   193    1
   215   192   195   ar
   216   193   194    1
   217   195   196    1
   218   195   197   ar
   219   197   198   ar
   220   197   200    1
   221   198   199    1
   222   200   201    1
   223   200   205    1
   224   200   209    1
   225   201   202    1
   226   201   203    1
   227   201   204    1
   228   205   206    1
   229   205   207    1
   230   205   208    1
   231   209   210    1
   232   209   211    1
   233   209   212    1
   234   213   262    1
   235   213   263    1
   236   214   291    1
   237   214   292    1
   238   215   229    1
   239   215   288    2
   240   216   238    1
   241   216   259    2
   242   217   297    2
   243   218   256    1
   244   218   268    2
   245   219   220    1
   246   219   224    1
   247   219   233    1
   248   219   242    1
   249   221   222    1
   250   221   223    1
   251   221   232    1
   252   221   241    1
   253   223   224   ar
   254   223   230   ar
   255   224   225   ar
   256   225   226    1
   257   225   227   ar
   258   227   228    1
   259   227   229   ar
   260   229   230   ar
   261   230   231    1
   262   232   233   ar
   263   232   239   ar
   264   233   234   ar
   265   234   235    1
   266   234   236   ar
   267   236   237    1
   268   236   238   ar
   269   238   239   ar
   270   239   240    1
   271   241   242   ar
   272   241   248   ar
   273   242   243   ar
   274   243   244    1
   275   243   245   ar
   276   245   246    1
   277   245   247   ar
   278   247   248   ar
   279   248   249    1
   280   250   251   ar
   281   250   257   ar
   282   251   252   ar
   283   252   253    1
   284   252   254   ar
   285   254   255    1
   286   254   256   ar
   287   256   257   ar
   288   257   258    1
   289   259   260    1
   290   259   261    1
   291   261   262   ar
   292   261   273   ar
   293   262   267   ar
   294   263   264    1
   295   263   265    1
   296   263   266    1
   297   267   268    1
   298   267   270   ar
   299   268   269    1
   300   270   271    1
   301   270   272   ar
   302   272   273   ar
   303   272   275    1
   304   273   274    1
   305   275   276    1
   306   275   280    1
   307   275   284    1
   308   276   277    1
   309   276   278    1
   310   276   279    1
   311   280   281    1
   312   280   282    1
   313   280   283    1
   314   284   285    1
   315   284   286    1
   316   284   287    1
   317   288   289    1
   318   288   290    1
   319   290   291   ar
   320   290   302   ar
   321   291   296   ar
   322   292   293    1
   323   292   294    1
   324   292   295    1
   325   296   297    1
   326   296   299   ar
   327   297   298    1
   328   299   300    1
   329   299   301   ar
   330   301   302   ar
   331   301   304    1
   332   302   303    1
   333   304   305    1
   334   304   309    1
   335   304   313    1
   336   305   306    1
   337   305   307    1
   338   305   308    1
   339   309   310    1
   340   309   311    1
   341   309   312    1
   342   313   314    1
   343   313   315    1
   344   313   316    1
@<TRIPOS>SUBSTRUCTURE
     1 RES1        1 GROUP             0 ****  ****    0  
@<TRIPOS>CRYSIN
   30.3740   30.3740   25.8510   90.0000   90.0000  120.0000   232     1
 

