####################################################################### 
# 
# This file contains crystal structure data downloaded from the 
# Cambridge Structural Database (CSD) hosted by the Cambridge 
# Crystallographic Data Centre (CCDC).
# 
# Full information about CCDC data access policies and citation 
# guidelines are available at http://www.ccdc.cam.ac.uk/access/V1 
# 
# Audit and citation data items may have been added by the CCDC. 
# Please retain this information to preserve the provenance of 
# this file and to allow appropriate attribution of the data. 
# 
#######################################################################
@<TRIPOS>MOLECULE
913184
   176   191     1     0     0
SMALL
NO_CHARGES
****
Generated from the CSD

@<TRIPOS>ATOM
     1 O1       7.6944   5.1817   7.4151   O.3       1 RES1   0.0000
     2 C2       6.6978   8.8380  -8.5778   C.1       1 RES1   0.0000
     3 C3       5.2504   5.0891   2.2632   C.3       1 RES1   0.0000
     4 C4       8.9592   8.8252  -4.2180   C.ar      1 RES1   0.0000
     5 C5       7.5751   6.9442  -0.9395   C.ar      1 RES1   0.0000
     6 C6       4.9865   3.6437   1.7450   C.ar      1 RES1   0.0000
     7 C7       3.9471   5.8582   2.4510   C.ar      1 RES1   0.0000
     8 C8       6.2626   6.3016   4.2342   C.ar      1 RES1   0.0000
     9 H8       6.0381   7.1022   3.7767   H         1 RES1   0.0000
    10 C9       6.1362   5.7306   1.1596   C.ar      1 RES1   0.0000
    11 C10      6.3432   6.3447  -1.1743   C.ar      1 RES1   0.0000
    12 H10      5.9805   6.3447  -2.0530   H         1 RES1   0.0000
    13 C11      7.4449   8.9745  -7.6190   C.1       1 RES1   0.0000
    14 C12      6.0576   2.8260   1.4310   C.ar      1 RES1   0.0000
    15 H12      6.9367   3.1205   1.6403   H         1 RES1   0.0000
    16 C13     -5.8877   8.7693  -0.4452   C.1       1 RES1   0.0000
    17 C14      8.3436   9.1800  -6.5407   C.ar      1 RES1   0.0000
    18 C15      8.2096   7.6374  -2.0115   C.1       1 RES1   0.0000
    19 C16      5.9667   5.0921   3.6265   C.ar      1 RES1   0.0000
    20 C17      7.3864   6.2567   1.3637   C.ar      1 RES1   0.0000
    21 H17      7.7714   6.2077   2.2298   H         1 RES1   0.0000
    22 C18     -2.4056   8.4161   2.9520   C.ar      1 RES1   0.0000
    23 C19     -3.1444   8.4007   1.7664   C.ar      1 RES1   0.0000
    24 H19     -2.7184   8.1374   0.9594   H         1 RES1   0.0000
    25 C20      6.8718   6.4040   5.4798   C.ar      1 RES1   0.0000
    26 H20      7.1062   7.2522   5.8398   H         1 RES1   0.0000
    27 C21     -4.4831   8.7585   1.7383   C.ar      1 RES1   0.0000
    28 C22      5.6380   5.7484  -0.1484   C.ar      1 RES1   0.0000
    29 H22      4.8004   5.3410  -0.3334   H         1 RES1   0.0000
    30 C23      1.4446   7.1096   2.8130   C.ar      1 RES1   0.0000
    31 C24      8.1028   6.8573   0.3421   C.ar      1 RES1   0.0000
    32 H24      8.9643   7.2133   0.5204   H         1 RES1   0.0000
    33 C25      8.0836   8.6230  -5.2953   C.ar      1 RES1   0.0000
    34 H25      7.3013   8.0966  -5.1711   H         1 RES1   0.0000
    35 C26      8.6202   8.2281  -2.9593   C.1       1 RES1   0.0000
    36 C27      5.8938   1.6130   0.8316   C.ar      1 RES1   0.0000
    37 H27      6.6585   1.0871   0.6322   H         1 RES1   0.0000
    38 C28     -5.0895   9.1541   2.9329   C.ar      1 RES1   0.0000
    39 H28     -5.9997   9.4245   2.9331   H         1 RES1   0.0000
    40 C29     -4.3753   9.1559   4.1121   C.ar      1 RES1   0.0000
    41 H29     -4.7972   9.4134   4.9231   H         1 RES1   0.0000
    42 C30      9.4875   9.9338  -6.7114   C.ar      1 RES1   0.0000
    43 H30      9.6711  10.3301  -7.5554   H         1 RES1   0.0000
    44 C31     -5.2254   8.7522   0.5206   C.1       1 RES1   0.0000
    45 C32     -3.0564   8.7837   4.1161   C.ar      1 RES1   0.0000
    46 H32     -2.5777   8.7800   4.9353   H         1 RES1   0.0000
    47 C33      3.0424   5.4613   3.4455   C.ar      1 RES1   0.0000
    48 H33      3.2813   4.7465   4.0226   H         1 RES1   0.0000
    49 C34     -1.0426   8.0374   2.9524   C.1       1 RES1   0.0000
    50 C35      4.6651   1.1371   0.5143   C.ar      1 RES1   0.0000
    51 C36      7.1254   5.2428   6.1793   C.ar      1 RES1   0.0000
    52 C37      0.1039   7.6540   2.9209   C.1       1 RES1   0.0000
    53 C38      3.5560   6.9799   1.7278   C.ar      1 RES1   0.0000
    54 H38      4.1608   7.3448   1.0936   H         1 RES1   0.0000
    55 C39      4.4700  -0.1426  -0.1342   C.1       1 RES1   0.0000
    56 C40      3.9769  -2.3908  -1.4025   C.ar      1 RES1   0.0000
    57 C41      1.8207   6.0688   3.6151   C.ar      1 RES1   0.0000
    58 H41      1.2313   5.7632   4.2950   H         1 RES1   0.0000
    59 C42     10.0974   9.5671  -4.4088   C.ar      1 RES1   0.0000
    60 H42     10.6977   9.7060  -3.6852   H         1 RES1   0.0000
    61 C43     10.3769  10.1171  -5.6487   C.ar      1 RES1   0.0000
    62 H43     11.1742  10.6190  -5.7788   H         1 RES1   0.0000
    63 C44      8.0689   6.3818   8.0656   C.3       1 RES1   0.0000
    64 H44A     8.6957   6.8781   7.4984   H         1 RES1   0.0000
    65 H44B     8.4974   6.1706   8.9213   H         1 RES1   0.0000
    66 H44C     7.2725   6.9281   8.2261   H         1 RES1   0.0000
    67 C45      3.3011  -4.7095  -2.7949   C.ar      1 RES1   0.0000
    68 H45      3.0702  -5.5039  -3.2644   H         1 RES1   0.0000
    69 C46      2.3161   7.5948   1.8904   C.ar      1 RES1   0.0000
    70 H46      2.0820   8.3466   1.3578   H         1 RES1   0.0000
    71 C47      2.5694  -3.5242  -3.0104   C.ar      1 RES1   0.0000
    72 C48      3.7370   3.1853   1.3944   C.ar      1 RES1   0.0000
    73 H48      2.9743   3.7261   1.5631   H         1 RES1   0.0000
    74 C49      3.5790   1.9501   0.7988   C.ar      1 RES1   0.0000
    75 H49      2.7056   1.6501   0.5793   H         1 RES1   0.0000
    76 C50      2.9407  -2.3686  -2.2888   C.ar      1 RES1   0.0000
    77 H50      2.4594  -1.5612  -2.4229   H         1 RES1   0.0000
    78 C51      6.2434   3.9446   4.3560   C.ar      1 RES1   0.0000
    79 H51      6.0572   3.0927   3.9799   H         1 RES1   0.0000
    80 C52      6.7842   4.0279   5.6162   C.ar      1 RES1   0.0000
    81 H52      6.9271   3.2316   6.1142   H         1 RES1   0.0000
    82 C53      4.2868  -1.1834  -0.6952   C.1       1 RES1   0.0000
    83 C54      4.3491  -4.7150  -1.9066   C.ar      1 RES1   0.0000
    84 H54      4.8420  -5.5132  -1.7623   H         1 RES1   0.0000
    85 C55      0.5341  -3.4279  -4.6670   C.1       1 RES1   0.0000
    86 C56      1.4424  -3.4816  -3.9210   C.1       1 RES1   0.0000
    87 C57      4.6907  -3.5594  -1.2216   C.ar      1 RES1   0.0000
    88 H57      5.4240  -3.5724  -0.6179   H         1 RES1   0.0000
    89 O1      -7.6944   5.1817 -17.5784   O.3       1 RES1   0.0000
    90 C2      -6.6978   8.8380  -1.5855   C.1       1 RES1   0.0000
    91 C3      -5.2504   5.0891 -12.4264   C.3       1 RES1   0.0000
    92 C4      -8.9592   8.8252  -5.9453   C.ar      1 RES1   0.0000
    93 C5      -7.5751   6.9442  -9.2238   C.ar      1 RES1   0.0000
    94 C6      -4.9865   3.6437 -11.9083   C.ar      1 RES1   0.0000
    95 C7      -3.9471   5.8582 -12.6142   C.ar      1 RES1   0.0000
    96 C8      -6.2626   6.3016 -14.3975   C.ar      1 RES1   0.0000
    97 H8      -6.0381   7.1022 -13.9399   H         1 RES1   0.0000
    98 C9      -6.1362   5.7306 -11.3229   C.ar      1 RES1   0.0000
    99 C10     -6.3432   6.3447  -8.9890   C.ar      1 RES1   0.0000
   100 H10     -5.9805   6.3447  -8.1103   H         1 RES1   0.0000
   101 C11     -7.4449   8.9745  -2.5443   C.1       1 RES1   0.0000
   102 C12     -6.0576   2.8260 -11.5942   C.ar      1 RES1   0.0000
   103 H12     -6.9367   3.1205 -11.8036   H         1 RES1   0.0000
   104 C13      5.8877   8.7693  -9.7181   C.1       1 RES1   0.0000
   105 C14     -8.3436   9.1800  -3.6226   C.ar      1 RES1   0.0000
   106 C15     -8.2096   7.6374  -8.1517   C.1       1 RES1   0.0000
   107 C16     -5.9667   5.0921 -13.7897   C.ar      1 RES1   0.0000
   108 C17     -7.3864   6.2567 -11.5270   C.ar      1 RES1   0.0000
   109 H17     -7.7714   6.2077 -12.3931   H         1 RES1   0.0000
   110 C18      2.4056   8.4161 -13.1153   C.ar      1 RES1   0.0000
   111 C19      3.1444   8.4007 -11.9296   C.ar      1 RES1   0.0000
   112 H19      2.7184   8.1374 -11.1227   H         1 RES1   0.0000
   113 C20     -6.8718   6.4040 -15.6431   C.ar      1 RES1   0.0000
   114 H20     -7.1062   7.2522 -16.0031   H         1 RES1   0.0000
   115 C21      4.4831   8.7585 -11.9016   C.ar      1 RES1   0.0000
   116 C22     -5.6380   5.7484 -10.0149   C.ar      1 RES1   0.0000
   117 H22     -4.8004   5.3410  -9.8299   H         1 RES1   0.0000
   118 C23     -1.4446   7.1096 -12.9762   C.ar      1 RES1   0.0000
   119 C24     -8.1028   6.8573 -10.5053   C.ar      1 RES1   0.0000
   120 H24     -8.9643   7.2133 -10.6836   H         1 RES1   0.0000
   121 C25     -8.0836   8.6230  -4.8680   C.ar      1 RES1   0.0000
   122 H25     -7.3013   8.0966  -4.9922   H         1 RES1   0.0000
   123 C26     -8.6202   8.2281  -7.2039   C.1       1 RES1   0.0000
   124 C27     -5.8938   1.6130 -10.9948   C.ar      1 RES1   0.0000
   125 H27     -6.6585   1.0871 -10.7954   H         1 RES1   0.0000
   126 C28      5.0895   9.1541 -13.0962   C.ar      1 RES1   0.0000
   127 H28      5.9997   9.4245 -13.0964   H         1 RES1   0.0000
   128 C29      4.3753   9.1559 -14.2753   C.ar      1 RES1   0.0000
   129 H29      4.7972   9.4134 -15.0863   H         1 RES1   0.0000
   130 C30     -9.4875   9.9338  -3.4518   C.ar      1 RES1   0.0000
   131 H30     -9.6711  10.3301  -2.6079   H         1 RES1   0.0000
   132 C31      5.2254   8.7522 -10.6838   C.1       1 RES1   0.0000
   133 C32      3.0564   8.7837 -14.2794   C.ar      1 RES1   0.0000
   134 H32      2.5777   8.7800 -15.0985   H         1 RES1   0.0000
   135 C33     -3.0424   5.4613 -13.6088   C.ar      1 RES1   0.0000
   136 H33     -3.2813   4.7465 -14.1859   H         1 RES1   0.0000
   137 C34      1.0426   8.0374 -13.1157   C.1       1 RES1   0.0000
   138 C35     -4.6651   1.1371 -10.6775   C.ar      1 RES1   0.0000
   139 C36     -7.1254   5.2428 -16.3425   C.ar      1 RES1   0.0000
   140 C37     -0.1039   7.6540 -13.0842   C.1       1 RES1   0.0000
   141 C38     -3.5560   6.9799 -11.8910   C.ar      1 RES1   0.0000
   142 H38     -4.1608   7.3448 -11.2568   H         1 RES1   0.0000
   143 C39     -4.4700  -0.1426 -10.0291   C.1       1 RES1   0.0000
   144 C40     -3.9769  -2.3908  -8.7607   C.ar      1 RES1   0.0000
   145 C41     -1.8207   6.0688 -13.7783   C.ar      1 RES1   0.0000
   146 H41     -1.2313   5.7632 -14.4582   H         1 RES1   0.0000
   147 C42    -10.0974   9.5671  -5.7544   C.ar      1 RES1   0.0000
   148 H42    -10.6977   9.7060  -6.4781   H         1 RES1   0.0000
   149 C43    -10.3769  10.1171  -4.5145   C.ar      1 RES1   0.0000
   150 H43    -11.1742  10.6190  -4.3844   H         1 RES1   0.0000
   151 C44     -8.0689   6.3818 -18.2288   C.3       1 RES1   0.0000
   152 H44A    -8.6957   6.8781 -17.6617   H         1 RES1   0.0000
   153 H44B    -8.4974   6.1706 -19.0846   H         1 RES1   0.0000
   154 H44C    -7.2725   6.9281 -18.3894   H         1 RES1   0.0000
   155 C45     -3.3011  -4.7095  -7.3684   C.ar      1 RES1   0.0000
   156 H45     -3.0702  -5.5039  -6.8988   H         1 RES1   0.0000
   157 C46     -2.3161   7.5948 -12.0536   C.ar      1 RES1   0.0000
   158 H46     -2.0820   8.3466 -11.5211   H         1 RES1   0.0000
   159 C47     -2.5694  -3.5242  -7.1529   C.ar      1 RES1   0.0000
   160 C48     -3.7370   3.1853 -11.5576   C.ar      1 RES1   0.0000
   161 H48     -2.9743   3.7261 -11.7264   H         1 RES1   0.0000
   162 C49     -3.5790   1.9501 -10.9621   C.ar      1 RES1   0.0000
   163 H49     -2.7056   1.6501 -10.7426   H         1 RES1   0.0000
   164 C50     -2.9407  -2.3686  -7.8745   C.ar      1 RES1   0.0000
   165 H50     -2.4594  -1.5612  -7.7403   H         1 RES1   0.0000
   166 C51     -6.2434   3.9446 -14.5192   C.ar      1 RES1   0.0000
   167 H51     -6.0572   3.0927 -14.1432   H         1 RES1   0.0000
   168 C52     -6.7842   4.0279 -15.7795   C.ar      1 RES1   0.0000
   169 H52     -6.9271   3.2316 -16.2775   H         1 RES1   0.0000
   170 C53     -4.2868  -1.1834  -9.4681   C.1       1 RES1   0.0000
   171 C54     -4.3491  -4.7150  -8.2566   C.ar      1 RES1   0.0000
   172 H54     -4.8420  -5.5132  -8.4009   H         1 RES1   0.0000
   173 C55     -0.5341  -3.4279  -5.4963   C.1       1 RES1   0.0000
   174 C56     -1.4424  -3.4816  -6.2423   C.1       1 RES1   0.0000
   175 C57     -4.6907  -3.5594  -8.9416   C.ar      1 RES1   0.0000
   176 H57     -5.4240  -3.5724  -9.5453   H         1 RES1   0.0000
@<TRIPOS>BOND
     1     1    51    1
     2     1    63    1
     3     2    13    3
     4     2   104    1
     5     3     6    1
     6     3     7    1
     7     3    10    1
     8     3    19    1
     9     4    33   ar
    10     4    35    1
    11     4    59   ar
    12     5    11   ar
    13     5    18    1
    14     5    31   ar
    15     6    14   ar
    16     6    72   ar
    17     7    47   ar
    18     7    53   ar
    19     8     9    1
    20     8    19   ar
    21     8    25   ar
    22    10    20   ar
    23    10    28   ar
    24    11    12    1
    25    11    28   ar
    26    13    17    1
    27    14    15    1
    28    14    36   ar
    29    16    44    3
    30    16    90    1
    31    17    33   ar
    32    17    42   ar
    33    18    35    3
    34    19    78   ar
    35    20    21    1
    36    20    31   ar
    37    22    23   ar
    38    22    45   ar
    39    22    49    1
    40    23    24    1
    41    23    27   ar
    42    25    26    1
    43    25    51   ar
    44    27    38   ar
    45    27    44    1
    46    28    29    1
    47    30    52    1
    48    30    57   ar
    49    30    69   ar
    50    31    32    1
    51    33    34    1
    52    36    37    1
    53    36    50   ar
    54    38    39    1
    55    38    40   ar
    56    40    41    1
    57    40    45   ar
    58    42    43    1
    59    42    61   ar
    60    45    46    1
    61    47    48    1
    62    47    57   ar
    63    49    52    3
    64    50    55    1
    65    50    74   ar
    66    51    80   ar
    67    53    54    1
    68    53    69   ar
    69    55    82    3
    70    56    76   ar
    71    56    82    1
    72    56    87   ar
    73    57    58    1
    74    59    60    1
    75    59    61   ar
    76    61    62    1
    77    63    64    1
    78    63    65    1
    79    63    66    1
    80    67    68    1
    81    67    71   ar
    82    67    83   ar
    83    69    70    1
    84    71    76   ar
    85    71    86    1
    86    72    73    1
    87    72    74   ar
    88    74    75    1
    89    76    77    1
    90    78    79    1
    91    78    80   ar
    92    80    81    1
    93    83    84    1
    94    83    87   ar
    95    85    86    3
    96    85   173    1
    97    87    88    1
    98    89   139    1
    99    89   151    1
   100    90   101    3
   101    91    94    1
   102    91    95    1
   103    91    98    1
   104    91   107    1
   105    92   121   ar
   106    92   123    1
   107    92   147   ar
   108    93    99   ar
   109    93   106    1
   110    93   119   ar
   111    94   102   ar
   112    94   160   ar
   113    95   135   ar
   114    95   141   ar
   115    96    97    1
   116    96   107   ar
   117    96   113   ar
   118    98   108   ar
   119    98   116   ar
   120    99   100    1
   121    99   116   ar
   122   101   105    1
   123   102   103    1
   124   102   124   ar
   125   104   132    3
   126   105   121   ar
   127   105   130   ar
   128   106   123    3
   129   107   166   ar
   130   108   109    1
   131   108   119   ar
   132   110   111   ar
   133   110   133   ar
   134   110   137    1
   135   111   112    1
   136   111   115   ar
   137   113   114    1
   138   113   139   ar
   139   115   126   ar
   140   115   132    1
   141   116   117    1
   142   118   140    1
   143   118   145   ar
   144   118   157   ar
   145   119   120    1
   146   121   122    1
   147   124   125    1
   148   124   138   ar
   149   126   127    1
   150   126   128   ar
   151   128   129    1
   152   128   133   ar
   153   130   131    1
   154   130   149   ar
   155   133   134    1
   156   135   136    1
   157   135   145   ar
   158   137   140    3
   159   138   143    1
   160   138   162   ar
   161   139   168   ar
   162   141   142    1
   163   141   157   ar
   164   143   170    3
   165   144   164   ar
   166   144   170    1
   167   144   175   ar
   168   145   146    1
   169   147   148    1
   170   147   149   ar
   171   149   150    1
   172   151   152    1
   173   151   153    1
   174   151   154    1
   175   155   156    1
   176   155   159   ar
   177   155   171   ar
   178   157   158    1
   179   159   164   ar
   180   159   174    1
   181   160   161    1
   182   160   162   ar
   183   162   163    1
   184   164   165    1
   185   166   167    1
   186   166   168   ar
   187   168   169    1
   188   171   172    1
   189   171   175   ar
   190   173   174    3
   191   175   176    1
@<TRIPOS>SUBSTRUCTURE
     1 RES1        1 GROUP             0 ****  ****    0  
@<TRIPOS>CRYSIN
   31.9812   18.5193   20.3265   90.0000   90.0000   90.0000    60     1
 

