####################################################################### 
# 
# This file contains crystal structure data downloaded from the 
# Cambridge Structural Database (CSD) hosted by the Cambridge 
# Crystallographic Data Centre (CCDC).
# 
# Full information about CCDC data access policies and citation 
# guidelines are available at http://www.ccdc.cam.ac.uk/access/V1 
# 
# Audit and citation data items may have been added by the CCDC. 
# Please retain this information to preserve the provenance of 
# this file and to allow appropriate attribution of the data. 
# 
#######################################################################
@<TRIPOS>MOLECULE
935198
    87    96     1     0     0
SMALL
NO_CHARGES
****
Generated from the CSD

@<TRIPOS>ATOM
     1 O1      -0.5620   4.8146  10.1865   O.3       1 RES1   0.0000
     2 O2       6.0280   7.6940   9.0908   O.3       1 RES1   0.0000
     3 O3       1.3592   9.4334  16.4797   O.3       1 RES1   0.0000
     4 O4       2.4429  11.3021  15.5000   O.3       1 RES1   0.0000
     5 O5       7.0771   7.0592  11.1177   O.3       1 RES1   0.0000
     6 O6      -1.8737   6.7801  10.2508   O.3       1 RES1   0.0000
     7 C7       4.2365   4.3189  12.5243   C.ar      1 RES1   0.0000
     8 C8       3.3693  10.1919   9.1505   C.ar      1 RES1   0.0000
     9 C9       4.4149   7.5254  15.6409   C.ar      1 RES1   0.0000
    10 H9       5.3530   7.6430  15.5436   H         1 RES1   0.0000
    11 C10      4.7843   5.1497  14.9044   C.3       1 RES1   0.0000
    12 H10A     4.4073   4.2785  15.1844   H         1 RES1   0.0000
    13 H10B     5.6696   5.2480  15.3372   H         1 RES1   0.0000
    14 C11      0.0317   9.8547   9.7645   C.ar      1 RES1   0.0000
    15 C12      4.9702   5.1451  13.3919   C.ar      1 RES1   0.0000
    16 C13      5.9152   6.0230  12.8686   C.ar      1 RES1   0.0000
    17 H13      6.4155   6.5739  13.4589   H         1 RES1   0.0000
    18 C14      1.7543   4.0903  12.9077   C.ar      1 RES1   0.0000
    19 C15     -0.0349  11.2532  10.3642   C.3       1 RES1   0.0000
    20 H15A     0.3991  11.8909   9.7434   H         1 RES1   0.0000
    21 H15B    -0.9845  11.5192  10.4541   H         1 RES1   0.0000
    22 C16      1.1330   4.1639  11.6540   C.ar      1 RES1   0.0000
    23 H16      1.5641   3.7842  10.8973   H         1 RES1   0.0000
    24 C17      6.1423   6.1089  11.5003   C.ar      1 RES1   0.0000
    25 C18      2.8842  12.1614  10.7512   C.3       1 RES1   0.0000
    26 H18A     2.3303  12.5136  10.0109   H         1 RES1   0.0000
    27 H18B     3.4819  12.8891  11.0547   H         1 RES1   0.0000
    28 C19      2.4844   6.0936  15.5851   C.ar      1 RES1   0.0000
    29 C20      1.9742  11.7537  11.9011   C.ar      1 RES1   0.0000
    30 C21     -0.0999   4.7822  11.4958   C.ar      1 RES1   0.0000
    31 C22     -0.9302   7.6269   9.6815   C.ar      1 RES1   0.0000
    32 C23      3.1127   3.4061  12.9785   C.3       1 RES1   0.0000
    33 H23A     3.2838   3.1193  13.9097   H         1 RES1   0.0000
    34 H23B     3.1001   2.5981  12.4073   H         1 RES1   0.0000
    35 C24      5.3480   8.8279   9.5149   C.ar      1 RES1   0.0000
    36 C25      0.6360  11.3542  11.7225   C.ar      1 RES1   0.0000
    37 C26     -0.0782   7.2809   8.6453   C.ar      1 RES1   0.0000
    38 H26     -0.1346   6.4264   8.2349   H         1 RES1   0.0000
    39 C27      0.9672   9.4847   8.7830   C.ar      1 RES1   0.0000
    40 C28      2.2751   8.4430  16.1612   C.ar      1 RES1   0.0000
    41 C29     -0.7696   5.3057  12.5914   C.ar      1 RES1   0.0000
    42 H29     -1.6293   5.7002  12.4975   H         1 RES1   0.0000
    43 C30      1.1181   4.6630  14.0195   C.ar      1 RES1   0.0000
    44 C31      3.6452   8.6175  16.0258   C.ar      1 RES1   0.0000
    45 H31      4.0477   9.4614  16.1916   H         1 RES1   0.0000
    46 C32      0.8626   8.2142   8.2181   C.ar      1 RES1   0.0000
    47 H32      1.4560   7.9764   7.5150   H         1 RES1   0.0000
    48 C33      0.4274  10.9628  14.1278   C.ar      1 RES1   0.0000
    49 H33     -0.1000  10.6972  14.8726   H         1 RES1   0.0000
    50 C34      4.1939   9.1178   8.8031   C.ar      1 RES1   0.0000
    51 H34      3.9580   8.5723   8.0606   H         1 RES1   0.0000
    52 C35      4.9196  10.7164  10.9120   C.ar      1 RES1   0.0000
    53 H35      5.1828  11.2797  11.6309   H         1 RES1   0.0000
    54 C36     -0.1450   5.2359  13.8361   C.ar      1 RES1   0.0000
    55 H36     -0.5969   5.5929  14.5914   H         1 RES1   0.0000
    56 C37      2.5079  11.7433  13.1954   C.ar      1 RES1   0.0000
    57 H37      3.4044  12.0269  13.3290   H         1 RES1   0.0000
    58 C38      3.8700   6.2625  15.3917   C.ar      1 RES1   0.0000
    59 C39      1.7685   4.7650  15.3927   C.3       1 RES1   0.0000
    60 H39A     1.0737   4.6655  16.0907   H         1 RES1   0.0000
    61 H39B     2.4181   4.0256  15.5023   H         1 RES1   0.0000
    62 C40      3.7294  11.0076  10.2335   C.ar      1 RES1   0.0000
    63 C41      4.5263   4.3879  11.1570   C.ar      1 RES1   0.0000
    64 H41      4.0638   3.8072  10.5641   H         1 RES1   0.0000
    65 C42      5.4609   5.2691  10.6334   C.ar      1 RES1   0.0000
    66 H42      5.6308   5.2959   9.6991   H         1 RES1   0.0000
    67 C43     -0.1068  10.9976  12.8477   C.ar      1 RES1   0.0000
    68 H43     -1.0212  10.7681  12.7329   H         1 RES1   0.0000
    69 C44      2.1013  10.3891   8.3232   C.3       1 RES1   0.0000
    70 H44A     1.8122  11.3333   8.3923   H         1 RES1   0.0000
    71 H44B     2.3019  10.2009   7.3714   H         1 RES1   0.0000
    72 C45      7.2252   7.3447   9.7359   C.3       1 RES1   0.0000
    73 H45A     7.8711   8.0876   9.6318   H         1 RES1   0.0000
    74 H45B     7.6083   6.5509   9.2864   H         1 RES1   0.0000
    75 C46      1.7124   7.1849  15.9636   C.ar      1 RES1   0.0000
    76 H46      0.7778   7.0702  16.0907   H         1 RES1   0.0000
    77 C47      1.7618  11.3306  14.2865   C.ar      1 RES1   0.0000
    78 C48      5.7311   9.6407  10.5779   C.ar      1 RES1   0.0000
    79 H48      6.5285   9.4633  11.0624   H         1 RES1   0.0000
    80 C49     -1.8170   5.4021   9.9317   C.3       1 RES1   0.0000
    81 H49A    -2.5063   4.9242  10.4571   H         1 RES1   0.0000
    82 H49B    -2.0353   5.2863   8.9731   H         1 RES1   0.0000
    83 C50     -0.8962   8.9124  10.2092   C.ar      1 RES1   0.0000
    84 H50     -1.5174   9.1548  10.8866   H         1 RES1   0.0000
    85 C51      1.7946  10.7667  16.6365   C.3       1 RES1   0.0000
    86 H51A     2.4160  10.8102  17.4067   H         1 RES1   0.0000
    87 H51B     1.0122  11.3333  16.8519   H         1 RES1   0.0000
@<TRIPOS>BOND
     1     1    30    1
     2     1    80    1
     3     2    35    1
     4     2    72    1
     5     3    40    1
     6     3    85    1
     7     4    77    1
     8     4    85    1
     9     5    24    1
    10     5    72    1
    11     6    31    1
    12     6    80    1
    13     7    15   ar
    14     7    32    1
    15     7    63   ar
    16     8    50   ar
    17     8    62   ar
    18     8    69    1
    19     9    10    1
    20     9    44   ar
    21     9    58   ar
    22    11    12    1
    23    11    13    1
    24    11    15    1
    25    11    58    1
    26    14    19    1
    27    14    39   ar
    28    14    83   ar
    29    15    16   ar
    30    16    17    1
    31    16    24   ar
    32    18    22   ar
    33    18    32    1
    34    18    43   ar
    35    19    20    1
    36    19    21    1
    37    19    36    1
    38    22    23    1
    39    22    30   ar
    40    24    65   ar
    41    25    26    1
    42    25    27    1
    43    25    29    1
    44    25    62    1
    45    28    58   ar
    46    28    59    1
    47    28    75   ar
    48    29    36   ar
    49    29    56   ar
    50    30    41   ar
    51    31    37   ar
    52    31    83   ar
    53    32    33    1
    54    32    34    1
    55    35    50   ar
    56    35    78   ar
    57    36    67   ar
    58    37    38    1
    59    37    46   ar
    60    39    46   ar
    61    39    69    1
    62    40    44   ar
    63    40    75   ar
    64    41    42    1
    65    41    54   ar
    66    43    54   ar
    67    43    59    1
    68    44    45    1
    69    46    47    1
    70    48    49    1
    71    48    67   ar
    72    48    77   ar
    73    50    51    1
    74    52    53    1
    75    52    62   ar
    76    52    78   ar
    77    54    55    1
    78    56    57    1
    79    56    77   ar
    80    59    60    1
    81    59    61    1
    82    63    64    1
    83    63    65   ar
    84    65    66    1
    85    67    68    1
    86    69    70    1
    87    69    71    1
    88    72    73    1
    89    72    74    1
    90    75    76    1
    91    78    79    1
    92    80    81    1
    93    80    82    1
    94    83    84    1
    95    85    86    1
    96    85    87    1
@<TRIPOS>SUBSTRUCTURE
     1 RES1        1 GROUP             0 ****  ****    0  
@<TRIPOS>CRYSIN
   12.0770   19.1603   15.3058   90.0000   93.0760   90.0000    14     1
 

