@<TRIPOS>MOLECULE
*****
 276 294 0 0 0
SMALL
GASTEIGER

@<TRIPOS>ATOM
      1 O1          8.4198    3.1204   11.0723 O.2     1  RES11      -0.2700
      2 N1          8.4540    4.4275    9.2162 N.am    1  RES11      -0.2917
      3 C1          8.0125    6.4730    6.1998 C.ar    1  RES11      -0.0524
      4 H1          8.7824    6.1864    5.7228 H       1  RES11       0.0624
      5 C2          7.5970    5.7731    7.3114 C.ar    1  RES11      -0.0295
      6 C3          8.3918    4.5607    7.7584 C.3     1  RES11       0.0401
      7 H3A         7.9776    3.7461    7.3779 H       1  RES11       0.0514
      8 H3B         9.3111    4.6279    7.4015 H       1  RES11       0.0514
      9 C4          9.1079    5.5255    9.9325 C.3     1  RES11       0.0311
     10 H4A         8.8751    5.4644   10.8932 H       1  RES11       0.0480
     11 H4B         8.7548    6.3856    9.5912 H       1  RES11       0.0480
     12 C5          8.1675    3.2845    9.8812 C.2     1  RES11       0.2469
     13 C6          7.5136    2.1792    9.1138 C.ar    1  RES11       0.0370
     14 C8          7.6185    0.1164    7.8789 C.ar    1  RES11      -0.0470
     15 H8          8.1097   -0.5168    7.3680 H       1  RES11       0.0629
     16 Br1A        5.5168   -1.5377    7.2445 Br      1  RES11      -0.0503
     17 C9A         6.3205   -0.0552    8.1433 C.ar    1  RES11       0.0179
     18 C10A        5.5728    0.7851    8.8475 C.ar    1  RES11      -0.0470
     19 H10A        4.6536    0.5839    8.9876 H       1  RES11       0.0629
     20 C11A        6.1469    2.0536    9.4275 C.ar    1  RES11      -0.0486
     21 H11A        5.6498    2.6848    9.9364 H       1  RES11       0.0625
     22 C7B         8.1926    1.0219    8.5851 C.ar    1  RES11      -0.0486
     23 H7B         9.1197    0.9232    8.7706 H       1  RES11       0.0625
     24 O1         11.3071    3.1204    8.6546 O.2     1  RES11      -0.2700
     25 N1         11.2729    4.4275   10.5107 N.am    1  RES11      -0.2917
     26 C1         11.7144    6.4730   13.5271 C.ar    1  RES11      -0.0524
     27 H1         10.9445    6.1864   14.0041 H       1  RES11       0.0624
     28 C2         12.1299    5.7731   12.4155 C.ar    1  RES11      -0.0295
     29 C3         11.3351    4.5607   11.9685 C.3     1  RES11       0.0401
     30 H3A        11.7493    3.7461   12.3490 H       1  RES11       0.0514
     31 H3B        10.4158    4.6279   12.3254 H       1  RES11       0.0514
     32 C4         10.6190    5.5255    9.7944 C.3     1  RES11       0.0311
     33 H4A        10.8518    5.4644    8.8337 H       1  RES11       0.0480
     34 H4B        10.9721    6.3856   10.1357 H       1  RES11       0.0480
     35 C5         11.5594    3.2845    9.8457 C.2     1  RES11       0.2469
     36 C6         12.2133    2.1792   10.6131 C.ar    1  RES11       0.0370
     37 C8         12.1084    0.1164   11.8480 C.ar    1  RES11      -0.0470
     38 H8         11.6172   -0.5168   12.3589 H       1  RES11       0.0629
     39 Br1A       14.2101   -1.5377   12.4824 Br      1  RES11      -0.0503
     40 C9A        13.4064   -0.0552   11.5836 C.ar    1  RES11       0.0179
     41 C10A       14.1541    0.7851   10.8794 C.ar    1  RES11      -0.0470
     42 H10A       15.0733    0.5839   10.7393 H       1  RES11       0.0629
     43 C11A       13.5800    2.0536   10.2994 C.ar    1  RES11      -0.0486
     44 H11A       14.0771    2.6848    9.7905 H       1  RES11       0.0625
     45 C7B        11.5343    1.0219   11.1418 C.ar    1  RES11      -0.0486
     46 H7B        10.6072    0.9232   10.9563 H       1  RES11       0.0625
     47 O1         11.0723    8.4198    3.1204 O.2     1  RES11      -0.2700
     48 N1          9.2162    8.4540    4.4275 N.am    1  RES11      -0.2917
     49 C1          6.1998    8.0125    6.4730 C.ar    1  RES11      -0.0524
     50 H1          5.7228    8.7824    6.1864 H       1  RES11       0.0624
     51 C2          7.3114    7.5970    5.7731 C.ar    1  RES11      -0.0295
     52 C3          7.7584    8.3918    4.5607 C.3     1  RES11       0.0401
     53 H3A         7.3779    7.9776    3.7461 H       1  RES11       0.0514
     54 H3B         7.4015    9.3111    4.6279 H       1  RES11       0.0514
     55 C4          9.9325    9.1079    5.5255 C.3     1  RES11       0.0311
     56 H4A        10.8932    8.8751    5.4644 H       1  RES11       0.0480
     57 H4B         9.5912    8.7548    6.3856 H       1  RES11       0.0480
     58 C5          9.8812    8.1675    3.2845 C.2     1  RES11       0.2469
     59 C6          9.1138    7.5136    2.1792 C.ar    1  RES11       0.0370
     60 C8          7.8789    7.6185    0.1164 C.ar    1  RES11      -0.0470
     61 H8          7.3680    8.1097   -0.5168 H       1  RES11       0.0629
     62 Br1A        7.2445    5.5168   -1.5377 Br      1  RES11      -0.0503
     63 C9A         8.1433    6.3205   -0.0552 C.ar    1  RES11       0.0179
     64 C10A        8.8475    5.5728    0.7851 C.ar    1  RES11      -0.0470
     65 H10A        8.9876    4.6536    0.5839 H       1  RES11       0.0629
     66 C11A        9.4275    6.1469    2.0536 C.ar    1  RES11      -0.0486
     67 H11A        9.9364    5.6498    2.6848 H       1  RES11       0.0625
     68 C7B         8.5851    8.1926    1.0219 C.ar    1  RES11      -0.0486
     69 H7B         8.7706    9.1197    0.9232 H       1  RES11       0.0625
     70 O1          8.6546    8.4198   16.6065 O.2     1  RES11      -0.2700
     71 N1         10.5107    8.4540   15.2994 N.am    1  RES11      -0.2917
     72 C1         13.5271    8.0125   13.2539 C.ar    1  RES11      -0.0524
     73 H1         14.0041    8.7824   13.5405 H       1  RES11       0.0624
     74 C2         12.4155    7.5970   13.9538 C.ar    1  RES11      -0.0295
     75 C3         11.9685    8.3918   15.1662 C.3     1  RES11       0.0401
     76 H3A        12.3490    7.9776   15.9808 H       1  RES11       0.0514
     77 H3B        12.3254    9.3111   15.0990 H       1  RES11       0.0514
     78 C4          9.7944    9.1079   14.2014 C.3     1  RES11       0.0311
     79 H4A         8.8337    8.8751   14.2625 H       1  RES11       0.0480
     80 H4B        10.1357    8.7548   13.3413 H       1  RES11       0.0480
     81 C5          9.8457    8.1675   16.4424 C.2     1  RES11       0.2469
     82 C6         10.6131    7.5136   17.5477 C.ar    1  RES11       0.0370
     83 C8         11.8480    7.6185   19.6105 C.ar    1  RES11      -0.0470
     84 H8         12.3589    8.1097   20.2437 H       1  RES11       0.0629
     85 Br1A       12.4824    5.5168   21.2646 Br      1  RES11      -0.0503
     86 C9A        11.5836    6.3205   19.7821 C.ar    1  RES11       0.0179
     87 C10A       10.8794    5.5728   18.9418 C.ar    1  RES11      -0.0470
     88 H10A       10.7393    4.6536   19.1430 H       1  RES11       0.0629
     89 C11A       10.2994    6.1469   17.6733 C.ar    1  RES11      -0.0486
     90 H11A        9.7905    5.6498   17.0421 H       1  RES11       0.0625
     91 C7B        11.1418    8.1926   18.7050 C.ar    1  RES11      -0.0486
     92 H7B        10.9563    9.1197   18.8037 H       1  RES11       0.0625
     93 O1          3.1204   11.0723    8.4198 O.2     1  RES11      -0.2700
     94 N1          4.4275    9.2162    8.4540 N.am    1  RES11      -0.2917
     95 C1          6.4730    6.1998    8.0125 C.ar    1  RES11      -0.0524
     96 H1          6.1864    5.7228    8.7824 H       1  RES11       0.0624
     97 C2          5.7731    7.3114    7.5970 C.ar    1  RES11      -0.0295
     98 C3          4.5607    7.7584    8.3918 C.3     1  RES11       0.0401
     99 H3A         3.7461    7.3779    7.9776 H       1  RES11       0.0514
    100 H3B         4.6279    7.4015    9.3111 H       1  RES11       0.0514
    101 C4          5.5255    9.9325    9.1079 C.3     1  RES11       0.0311
    102 H4A         5.4644   10.8932    8.8751 H       1  RES11       0.0480
    103 H4B         6.3856    9.5912    8.7548 H       1  RES11       0.0480
    104 C5          3.2845    9.8812    8.1675 C.2     1  RES11       0.2469
    105 C6          2.1792    9.1138    7.5136 C.ar    1  RES11       0.0370
    106 C8          0.1164    7.8789    7.6185 C.ar    1  RES11      -0.0470
    107 H8         -0.5168    7.3680    8.1097 H       1  RES11       0.0629
    108 Br1A       -1.5377    7.2445    5.5168 Br      1  RES11      -0.0503
    109 C9A        -0.0552    8.1433    6.3205 C.ar    1  RES11       0.0179
    110 C10A        0.7851    8.8475    5.5728 C.ar    1  RES11      -0.0470
    111 H10A        0.5839    8.9876    4.6536 H       1  RES11       0.0629
    112 C11A        2.0536    9.4275    6.1469 C.ar    1  RES11      -0.0486
    113 H11A        2.6848    9.9364    5.6498 H       1  RES11       0.0625
    114 C7B         1.0219    8.5851    8.1926 C.ar    1  RES11      -0.0486
    115 H7B         0.9232    8.7706    9.1197 H       1  RES11       0.0625
    116 O1          3.1204    8.6546   11.3071 O.2     1  RES11      -0.2700
    117 N1          4.4275   10.5107   11.2729 N.am    1  RES11      -0.2917
    118 C1          6.4730   13.5271   11.7144 C.ar    1  RES11      -0.0524
    119 H1          6.1864   14.0041   10.9445 H       1  RES11       0.0624
    120 C2          5.7731   12.4155   12.1299 C.ar    1  RES11      -0.0295
    121 C3          4.5607   11.9685   11.3351 C.3     1  RES11       0.0401
    122 H3A         3.7461   12.3490   11.7493 H       1  RES11       0.0514
    123 H3B         4.6279   12.3254   10.4158 H       1  RES11       0.0514
    124 C4          5.5255    9.7944   10.6190 C.3     1  RES11       0.0311
    125 H4A         5.4644    8.8337   10.8518 H       1  RES11       0.0480
    126 H4B         6.3856   10.1357   10.9721 H       1  RES11       0.0480
    127 C5          3.2845    9.8457   11.5594 C.2     1  RES11       0.2469
    128 C6          2.1792   10.6131   12.2133 C.ar    1  RES11       0.0370
    129 C8          0.1164   11.8480   12.1084 C.ar    1  RES11      -0.0470
    130 H8         -0.5168   12.3589   11.6172 H       1  RES11       0.0629
    131 Br1A       -1.5377   12.4824   14.2101 Br      1  RES11      -0.0503
    132 C9A        -0.0552   11.5836   13.4064 C.ar    1  RES11       0.0179
    133 C10A        0.7851   10.8794   14.1541 C.ar    1  RES11      -0.0470
    134 H10A        0.5839   10.7393   15.0733 H       1  RES11       0.0629
    135 C11A        2.0536   10.2994   13.5800 C.ar    1  RES11      -0.0486
    136 H11A        2.6848    9.7905   14.0771 H       1  RES11       0.0625
    137 C7B         1.0219   11.1418   11.5343 C.ar    1  RES11      -0.0486
    138 H7B         0.9232   10.9563   10.6072 H       1  RES11       0.0625
    139 O1          8.4198   16.6065    8.6546 O.2     1  RES11      -0.2700
    140 N1          8.4540   15.2994   10.5107 N.am    1  RES11      -0.2917
    141 C1          8.0125   13.2539   13.5271 C.ar    1  RES11      -0.0524
    142 H1          8.7824   13.5405   14.0041 H       1  RES11       0.0624
    143 C2          7.5970   13.9538   12.4155 C.ar    1  RES11      -0.0295
    144 C3          8.3918   15.1662   11.9685 C.3     1  RES11       0.0401
    145 H3A         7.9776   15.9808   12.3490 H       1  RES11       0.0514
    146 H3B         9.3111   15.0990   12.3254 H       1  RES11       0.0514
    147 C4          9.1079   14.2014    9.7944 C.3     1  RES11       0.0311
    148 H4A         8.8751   14.2625    8.8337 H       1  RES11       0.0480
    149 H4B         8.7548   13.3413   10.1357 H       1  RES11       0.0480
    150 C5          8.1675   16.4424    9.8457 C.2     1  RES11       0.2469
    151 C6          7.5136   17.5477   10.6131 C.ar    1  RES11       0.0370
    152 C8          7.6185   19.6105   11.8480 C.ar    1  RES11      -0.0470
    153 H8          8.1097   20.2437   12.3589 H       1  RES11       0.0629
    154 Br1A        5.5168   21.2646   12.4824 Br      1  RES11      -0.0503
    155 C9A         6.3205   19.7821   11.5836 C.ar    1  RES11       0.0179
    156 C10A        5.5728   18.9418   10.8794 C.ar    1  RES11      -0.0470
    157 H10A        4.6536   19.1430   10.7393 H       1  RES11       0.0629
    158 C11A        6.1469   17.6733   10.2994 C.ar    1  RES11      -0.0486
    159 H11A        5.6498   17.0421    9.7905 H       1  RES11       0.0625
    160 C7B         8.1926   18.7050   11.1418 C.ar    1  RES11      -0.0486
    161 H7B         9.1197   18.8037   10.9563 H       1  RES11       0.0625
    162 O1         11.0723   11.3071   16.6065 O.2     1  RES11      -0.2700
    163 N1          9.2162   11.2729   15.2994 N.am    1  RES11      -0.2917
    164 C1          6.1998   11.7144   13.2539 C.ar    1  RES11      -0.0524
    165 H1          5.7228   10.9445   13.5405 H       1  RES11       0.0624
    166 C2          7.3114   12.1299   13.9538 C.ar    1  RES11      -0.0295
    167 C3          7.7584   11.3351   15.1662 C.3     1  RES11       0.0401
    168 H3A         7.3779   11.7493   15.9808 H       1  RES11       0.0514
    169 H3B         7.4015   10.4158   15.0990 H       1  RES11       0.0514
    170 C4          9.9325   10.6190   14.2014 C.3     1  RES11       0.0311
    171 H4A        10.8932   10.8518   14.2625 H       1  RES11       0.0480
    172 H4B         9.5912   10.9721   13.3413 H       1  RES11       0.0480
    173 C5          9.8812   11.5594   16.4424 C.2     1  RES11       0.2469
    174 C6          9.1138   12.2133   17.5477 C.ar    1  RES11       0.0370
    175 C8          7.8789   12.1084   19.6105 C.ar    1  RES11      -0.0470
    176 H8          7.3680   11.6172   20.2437 H       1  RES11       0.0629
    177 Br1A        7.2445   14.2101   21.2646 Br      1  RES11      -0.0503
    178 C9A         8.1433   13.4064   19.7821 C.ar    1  RES11       0.0179
    179 C10A        8.8475   14.1541   18.9418 C.ar    1  RES11      -0.0470
    180 H10A        8.9876   15.0733   19.1430 H       1  RES11       0.0629
    181 C11A        9.4275   13.5800   17.6733 C.ar    1  RES11      -0.0486
    182 H11A        9.9364   14.0771   17.0421 H       1  RES11       0.0625
    183 C7B         8.5851   11.5343   18.7050 C.ar    1  RES11      -0.0486
    184 H7B         8.7706   10.6072   18.8037 H       1  RES11       0.0625
    185 O1          8.6546   11.3071    3.1204 O.2     1  RES11      -0.2700
    186 N1         10.5107   11.2729    4.4275 N.am    1  RES11      -0.2917
    187 C1         13.5271   11.7144    6.4730 C.ar    1  RES11      -0.0524
    188 H1         14.0041   10.9445    6.1864 H       1  RES11       0.0624
    189 C2         12.4155   12.1299    5.7731 C.ar    1  RES11      -0.0295
    190 C3         11.9685   11.3351    4.5607 C.3     1  RES11       0.0401
    191 H3A        12.3490   11.7493    3.7461 H       1  RES11       0.0514
    192 H3B        12.3254   10.4158    4.6279 H       1  RES11       0.0514
    193 C4          9.7944   10.6190    5.5255 C.3     1  RES11       0.0311
    194 H4A         8.8337   10.8518    5.4644 H       1  RES11       0.0480
    195 H4B        10.1357   10.9721    6.3856 H       1  RES11       0.0480
    196 C5          9.8457   11.5594    3.2845 C.2     1  RES11       0.2469
    197 C6         10.6131   12.2133    2.1792 C.ar    1  RES11       0.0370
    198 C8         11.8480   12.1084    0.1164 C.ar    1  RES11      -0.0470
    199 H8         12.3589   11.6172   -0.5168 H       1  RES11       0.0629
    200 Br1A       12.4824   14.2101   -1.5377 Br      1  RES11      -0.0503
    201 C9A        11.5836   13.4064   -0.0552 C.ar    1  RES11       0.0179
    202 C10A       10.8794   14.1541    0.7851 C.ar    1  RES11      -0.0470
    203 H10A       10.7393   15.0733    0.5839 H       1  RES11       0.0629
    204 C11A       10.2994   13.5800    2.0536 C.ar    1  RES11      -0.0486
    205 H11A        9.7905   14.0771    2.6848 H       1  RES11       0.0625
    206 C7B        11.1418   11.5343    1.0219 C.ar    1  RES11      -0.0486
    207 H7B        10.9563   10.6072    0.9232 H       1  RES11       0.0625
    208 O1         16.6065   11.0723   11.3071 O.2     1  RES11      -0.2700
    209 N1         15.2994    9.2162   11.2729 N.am    1  RES11      -0.2917
    210 C1         13.2539    6.1998   11.7144 C.ar    1  RES11      -0.0524
    211 H1         13.5405    5.7228   10.9445 H       1  RES11       0.0624
    212 C2         13.9538    7.3114   12.1299 C.ar    1  RES11      -0.0295
    213 C3         15.1662    7.7584   11.3351 C.3     1  RES11       0.0401
    214 H3A        15.9808    7.3779   11.7493 H       1  RES11       0.0514
    215 H3B        15.0990    7.4015   10.4158 H       1  RES11       0.0514
    216 C4         14.2014    9.9325   10.6190 C.3     1  RES11       0.0311
    217 H4A        14.2625   10.8932   10.8518 H       1  RES11       0.0480
    218 H4B        13.3413    9.5912   10.9721 H       1  RES11       0.0480
    219 C5         16.4424    9.8812   11.5594 C.2     1  RES11       0.2469
    220 C6         17.5477    9.1138   12.2133 C.ar    1  RES11       0.0370
    221 C8         19.6105    7.8789   12.1084 C.ar    1  RES11      -0.0470
    222 H8         20.2437    7.3680   11.6172 H       1  RES11       0.0629
    223 Br1A       21.2646    7.2445   14.2101 Br      1  RES11      -0.0503
    224 C9A        19.7821    8.1433   13.4064 C.ar    1  RES11       0.0179
    225 C10A       18.9418    8.8475   14.1541 C.ar    1  RES11      -0.0470
    226 H10A       19.1430    8.9876   15.0733 H       1  RES11       0.0629
    227 C11A       17.6733    9.4275   13.5800 C.ar    1  RES11      -0.0486
    228 H11A       17.0421    9.9364   14.0771 H       1  RES11       0.0625
    229 C7B        18.7050    8.5851   11.5343 C.ar    1  RES11      -0.0486
    230 H7B        18.8037    8.7706   10.6072 H       1  RES11       0.0625
    231 O1         16.6065    8.6546    8.4198 O.2     1  RES11      -0.2700
    232 N1         15.2994   10.5107    8.4540 N.am    1  RES11      -0.2917
    233 C1         13.2539   13.5271    8.0125 C.ar    1  RES11      -0.0524
    234 H1         13.5405   14.0041    8.7824 H       1  RES11       0.0624
    235 C2         13.9538   12.4155    7.5970 C.ar    1  RES11      -0.0295
    236 C3         15.1662   11.9685    8.3918 C.3     1  RES11       0.0401
    237 H3A        15.9808   12.3490    7.9776 H       1  RES11       0.0514
    238 H3B        15.0990   12.3254    9.3111 H       1  RES11       0.0514
    239 C4         14.2014    9.7944    9.1079 C.3     1  RES11       0.0311
    240 H4A        14.2625    8.8337    8.8751 H       1  RES11       0.0480
    241 H4B        13.3413   10.1357    8.7548 H       1  RES11       0.0480
    242 C5         16.4424    9.8457    8.1675 C.2     1  RES11       0.2469
    243 C6         17.5477   10.6131    7.5136 C.ar    1  RES11       0.0370
    244 C8         19.6105   11.8480    7.6185 C.ar    1  RES11      -0.0470
    245 H8         20.2437   12.3589    8.1097 H       1  RES11       0.0629
    246 Br1A       21.2646   12.4824    5.5168 Br      1  RES11      -0.0503
    247 C9A        19.7821   11.5836    6.3205 C.ar    1  RES11       0.0179
    248 C10A       18.9418   10.8794    5.5728 C.ar    1  RES11      -0.0470
    249 H10A       19.1430   10.7393    4.6536 H       1  RES11       0.0629
    250 C11A       17.6733   10.2994    6.1469 C.ar    1  RES11      -0.0486
    251 H11A       17.0421    9.7905    5.6498 H       1  RES11       0.0625
    252 C7B        18.7050   11.1418    8.1926 C.ar    1  RES11      -0.0486
    253 H7B        18.8037   10.9563    9.1197 H       1  RES11       0.0625
    254 O1         11.3071   16.6065   11.0723 O.2     1  RES11      -0.2700
    255 N1         11.2729   15.2994    9.2162 N.am    1  RES11      -0.2917
    256 C1         11.7144   13.2539    6.1998 C.ar    1  RES11      -0.0524
    257 H1         10.9445   13.5405    5.7228 H       1  RES11       0.0624
    258 C2         12.1299   13.9538    7.3114 C.ar    1  RES11      -0.0295
    259 C3         11.3351   15.1662    7.7584 C.3     1  RES11       0.0401
    260 H3A        11.7493   15.9808    7.3779 H       1  RES11       0.0514
    261 H3B        10.4158   15.0990    7.4015 H       1  RES11       0.0514
    262 C4         10.6190   14.2014    9.9325 C.3     1  RES11       0.0311
    263 H4A        10.8518   14.2625   10.8932 H       1  RES11       0.0480
    264 H4B        10.9721   13.3413    9.5912 H       1  RES11       0.0480
    265 C5         11.5594   16.4424    9.8812 C.2     1  RES11       0.2469
    266 C6         12.2133   17.5477    9.1138 C.ar    1  RES11       0.0370
    267 C8         12.1084   19.6105    7.8789 C.ar    1  RES11      -0.0470
    268 H8         11.6172   20.2437    7.3680 H       1  RES11       0.0629
    269 Br1A       14.2101   21.2646    7.2445 Br      1  RES11      -0.0503
    270 C9A        13.4064   19.7821    8.1433 C.ar    1  RES11       0.0179
    271 C10A       14.1541   18.9418    8.8475 C.ar    1  RES11      -0.0470
    272 H10A       15.0733   19.1430    8.9876 H       1  RES11       0.0629
    273 C11A       13.5800   17.6733    9.4275 C.ar    1  RES11      -0.0486
    274 H11A       14.0771   17.0421    9.9364 H       1  RES11       0.0625
    275 C7B        11.5343   18.7050    8.5851 C.ar    1  RES11      -0.0486
    276 H7B        10.6072   18.8037    8.7706 H       1  RES11       0.0625
@<TRIPOS>BOND
     1     1    12    2
     2     2     6    1
     3     2     9    1
     4     2    12   am
     5     3     4    1
     6     3     5   ar
     7     3    51   ar
     8     5     6    1
     9     5    95   ar
    10     6     7    1
    11     6     8    1
    12     9    10    1
    13     9    11    1
    14     9    32    1
    15    12    13    1
    16    13    20   ar
    17    13    22   ar
    18    14    15    1
    19    14    17   ar
    20    14    22   ar
    21    16    17    1
    22    17    18   ar
    23    18    19    1
    24    18    20   ar
    25    20    21    1
    26    22    23    1
    27    24    35    2
    28    25    29    1
    29    25    32    1
    30    25    35   am
    31    26    27    1
    32    26    28   ar
    33    26    74   ar
    34    28    29    1
    35    28   210   ar
    36    29    30    1
    37    29    31    1
    38    32    33    1
    39    32    34    1
    40    35    36    1
    41    36    43   ar
    42    36    45   ar
    43    37    38    1
    44    37    40   ar
    45    37    45   ar
    46    39    40    1
    47    40    41   ar
    48    41    42    1
    49    41    43   ar
    50    43    44    1
    51    45    46    1
    52    47    58    2
    53    48    52    1
    54    48    55    1
    55    48    58   am
    56    49    50    1
    57    49    51   ar
    58    49    97   ar
    59    51    52    1
    60    52    53    1
    61    52    54    1
    62    55    56    1
    63    55    57    1
    64    55   193    1
    65    58    59    1
    66    59    66   ar
    67    59    68   ar
    68    60    61    1
    69    60    63   ar
    70    60    68   ar
    71    62    63    1
    72    63    64   ar
    73    64    65    1
    74    64    66   ar
    75    66    67    1
    76    68    69    1
    77    70    81    2
    78    71    75    1
    79    71    78    1
    80    71    81   am
    81    72    73    1
    82    72    74   ar
    83    72   212   ar
    84    74    75    1
    85    75    76    1
    86    75    77    1
    87    78    79    1
    88    78    80    1
    89    78   170    1
    90    81    82    1
    91    82    89   ar
    92    82    91   ar
    93    83    84    1
    94    83    86   ar
    95    83    91   ar
    96    85    86    1
    97    86    87   ar
    98    87    88    1
    99    87    89   ar
   100    89    90    1
   101    91    92    1
   102    93   104    2
   103    94    98    1
   104    94   101    1
   105    94   104   am
   106    95    96    1
   107    95    97   ar
   108    97    98    1
   109    98    99    1
   110    98   100    1
   111   101   102    1
   112   101   103    1
   113   101   124    1
   114   104   105    1
   115   105   112   ar
   116   105   114   ar
   117   106   107    1
   118   106   109   ar
   119   106   114   ar
   120   108   109    1
   121   109   110   ar
   122   110   111    1
   123   110   112   ar
   124   112   113    1
   125   114   115    1
   126   116   127    2
   127   117   121    1
   128   117   124    1
   129   117   127   am
   130   118   119    1
   131   118   120   ar
   132   118   143   ar
   133   120   121    1
   134   120   164   ar
   135   121   122    1
   136   121   123    1
   137   124   125    1
   138   124   126    1
   139   127   128    1
   140   128   135   ar
   141   128   137   ar
   142   129   130    1
   143   129   132   ar
   144   129   137   ar
   145   131   132    1
   146   132   133   ar
   147   133   134    1
   148   133   135   ar
   149   135   136    1
   150   137   138    1
   151   139   150    2
   152   140   144    1
   153   140   147    1
   154   140   150   am
   155   141   142    1
   156   141   143   ar
   157   141   166   ar
   158   143   144    1
   159   144   145    1
   160   144   146    1
   161   147   148    1
   162   147   149    1
   163   147   262    1
   164   150   151    1
   165   151   158   ar
   166   151   160   ar
   167   152   153    1
   168   152   155   ar
   169   152   160   ar
   170   154   155    1
   171   155   156   ar
   172   156   157    1
   173   156   158   ar
   174   158   159    1
   175   160   161    1
   176   162   173    2
   177   163   167    1
   178   163   170    1
   179   163   173   am
   180   164   165    1
   181   164   166   ar
   182   166   167    1
   183   167   168    1
   184   167   169    1
   185   170   171    1
   186   170   172    1
   187   173   174    1
   188   174   181   ar
   189   174   183   ar
   190   175   176    1
   191   175   178   ar
   192   175   183   ar
   193   177   178    1
   194   178   179   ar
   195   179   180    1
   196   179   181   ar
   197   181   182    1
   198   183   184    1
   199   185   196    2
   200   186   190    1
   201   186   193    1
   202   186   196   am
   203   187   188    1
   204   187   189   ar
   205   187   235   ar
   206   189   190    1
   207   189   256   ar
   208   190   191    1
   209   190   192    1
   210   193   194    1
   211   193   195    1
   212   196   197    1
   213   197   204   ar
   214   197   206   ar
   215   198   199    1
   216   198   201   ar
   217   198   206   ar
   218   200   201    1
   219   201   202   ar
   220   202   203    1
   221   202   204   ar
   222   204   205    1
   223   206   207    1
   224   208   219    2
   225   209   213    1
   226   209   216    1
   227   209   219   am
   228   210   211    1
   229   210   212   ar
   230   212   213    1
   231   213   214    1
   232   213   215    1
   233   216   217    1
   234   216   218    1
   235   216   239    1
   236   219   220    1
   237   220   227   ar
   238   220   229   ar
   239   221   222    1
   240   221   224   ar
   241   221   229   ar
   242   223   224    1
   243   224   225   ar
   244   225   226    1
   245   225   227   ar
   246   227   228    1
   247   229   230    1
   248   231   242    2
   249   232   236    1
   250   232   239    1
   251   232   242   am
   252   233   234    1
   253   233   235   ar
   254   233   258   ar
   255   235   236    1
   256   236   237    1
   257   236   238    1
   258   239   240    1
   259   239   241    1
   260   242   243    1
   261   243   250   ar
   262   243   252   ar
   263   244   245    1
   264   244   247   ar
   265   244   252   ar
   266   246   247    1
   267   247   248   ar
   268   248   249    1
   269   248   250   ar
   270   250   251    1
   271   252   253    1
   272   254   265    2
   273   255   259    1
   274   255   262    1
   275   255   265   am
   276   256   257    1
   277   256   258   ar
   278   258   259    1
   279   259   260    1
   280   259   261    1
   281   262   263    1
   282   262   264    1
   283   265   266    1
   284   266   273   ar
   285   266   275   ar
   286   267   268    1
   287   267   270   ar
   288   267   275   ar
   289   269   270    1
   290   270   271   ar
   291   271   272    1
   292   271   273   ar
   293   273   274    1
   294   275   276    1
