@<TRIPOS>MOLECULE
*****
 249 252 0 0 0
SMALL
GASTEIGER

@<TRIPOS>ATOM
      1 O          23.1999    8.0865   22.2685 O.2     1  RES111     -0.2829
      2 O          27.1839    7.7701   22.3724 O.2     1  RES111     -0.2829
      3 O          20.9836    3.4169   14.0415 O.2     1  RES111     -0.2806
      4 O          19.1570    5.2930   17.4845 O.2     1  RES111     -0.2829
      5 O          25.1116    6.6797    9.7205 O.2     1  RES111     -0.2750
      6 O          25.4611   10.5974   10.0762 O.2     1  RES111     -0.2829
      7 O          29.3745   13.4468   14.5676 O.2     1  RES111     -0.2805
      8 O          31.0853   11.0782   17.5904 O.2     1  RES111     -0.2829
      9 O          22.1196   14.0244   14.6294 O.2     1  RES111     -0.2779
     10 O          20.0807   12.2901   18.1698 O.2     1  RES111     -0.5201
     11 O          27.6637    2.4112   14.4350 O.2     1  RES111     -0.3163
     12 O          30.1883    3.9338   17.5947 O.2     1  RES111     -0.2829
     13 N          24.6784    9.4009   21.2343 N.am    1  RES111     -0.3011
     14 N          25.7440    6.4655   21.2210 N.am    1  RES111     -0.3011
     15 N          21.7409    3.7209   16.1168 N.am    1  RES111     -0.2994
     16 N          19.9853    6.1611   15.5864 N.am    1  RES111     -0.3011
     17 N          23.8170    8.0611   10.9499 N.am    1  RES111     -0.2952
     18 N          26.7651    9.0524   11.0186 N.am    1  RES111     -0.3011
     19 N          29.8030   11.2623   14.5448 N.am    1  RES111     -0.2993
     20 N          29.0722   12.0056   17.4377 N.am    1  RES111     -0.3011
     21 N          22.8829   13.2644   16.6356 N.am    1  RES111     -0.2975
     22 N          20.4222   11.4632   16.0885 N.am    1  RES111     -0.4746
     23 N          28.7240    4.3406   14.6641 N.am    1  RES111     -0.3239
     24 N          27.9831    3.5946   17.5578 N.am    1  RES111     -0.3011
     25 C          24.4517   12.7655   18.5406 C.ar    1  RES111     -0.0295
     26 C          24.4598   11.8650   19.5598 C.ar    1  RES111     -0.0524
     27 H          23.6462   11.5871   19.9636 H       1  RES111      0.0624
     28 C          25.6951   11.3494   20.0108 C.ar    1  RES111     -0.0295
     29 C          26.8746   11.7779   19.4053 C.ar    1  RES111     -0.0524
     30 H          27.7106   11.4733   19.7361 H       1  RES111      0.0624
     31 C          26.8368   12.6520   18.3161 C.ar    1  RES111     -0.0295
     32 C          25.6215   13.1372   17.8904 C.ar    1  RES111     -0.0524
     33 H          25.5813   13.7264   17.1484 H       1  RES111      0.0624
     34 C          23.0938   13.4184   18.0947 C.3     1  RES111      0.0397
     35 H          22.3472   12.9899   18.5818 H       1  RES111      0.0514
     36 H          23.1005   14.3792   18.3286 H       1  RES111      0.0514
     37 C          25.7581   10.4086   21.2060 C.3     1  RES111      0.0396
     38 H          26.6292    9.9399   21.1952 H       1  RES111      0.0514
     39 H          25.7152   10.9476   22.0363 H       1  RES111      0.0514
     40 C          28.1224   13.0501   17.6462 C.3     1  RES111      0.0396
     41 H          27.9047   13.4485   16.7665 H       1  RES111      0.0514
     42 H          28.5509   13.7565   18.1912 H       1  RES111      0.0514
     43 C          20.5494    7.7403   13.7681 C.ar    1  RES111     -0.0295
     44 C          20.1748    8.9021   14.4204 C.ar    1  RES111     -0.0524
     45 H          19.5785    8.8485   15.1572 H       1  RES111      0.0624
     46 C          20.6498   10.1240   14.0204 C.ar    1  RES111     -0.0320
     47 C          21.5337   10.1836   12.9420 C.ar    1  RES111     -0.0524
     48 H          21.8584   11.0280   12.6553 H       1  RES111      0.0624
     49 C          21.9522    9.0259   12.2743 C.ar    1  RES111     -0.0295
     50 C          21.4466    7.7973   12.7103 C.ar    1  RES111     -0.0524
     51 H          21.7178    6.9971   12.2777 H       1  RES111      0.0624
     52 C          19.9501    6.4012   14.1651 C.3     1  RES111      0.0396
     53 H          19.0094    6.3644   13.8569 H       1  RES111      0.0514
     54 H          20.4456    5.6780   13.7067 H       1  RES111      0.0514
     55 C          20.2213   11.4297   14.6847 C.3     1  RES111      0.0091
     56 H          20.7268   12.1763   14.2732 H       1  RES111      0.0488
     57 H          19.2605   11.5837   14.5006 H       1  RES111      0.0488
     58 C          22.8595    9.1565   11.0847 C.3     1  RES111      0.0398
     59 H          22.3071    9.1967   10.2650 H       1  RES111      0.0514
     60 H          23.3583   10.0069   11.1533 H       1  RES111      0.0514
     61 C          25.5713    3.3948   18.1668 C.ar    1  RES111     -0.0295
     62 C          25.7085    4.1614   19.3049 C.ar    1  RES111     -0.0524
     63 H          26.5622    4.3121   19.6889 H       1  RES111      0.0624
     64 C          24.5502    4.7239   19.8915 C.ar    1  RES111     -0.0295
     65 C          23.3215    4.4728   19.2950 C.ar    1  RES111     -0.0524
     66 H          22.5381    4.8478   19.6804 H       1  RES111      0.0624
     67 C          23.2043    3.7148   18.1844 C.ar    1  RES111     -0.0295
     68 C          24.3225    3.1671   17.5960 C.ar    1  RES111     -0.0524
     69 H          24.2455    2.6415   16.8094 H       1  RES111      0.0624
     70 C          26.8033    2.7486   17.5115 C.3     1  RES111      0.0396
     71 H          27.0008    1.8949   17.9724 H       1  RES111      0.0514
     72 H          26.5924    2.5377   16.5648 H       1  RES111      0.0514
     73 C          24.6205    5.5341   21.1922 C.3     1  RES111      0.0396
     74 H          23.7768    6.0396   21.3025 H       1  RES111      0.0514
     75 H          24.7008    4.9080   21.9591 H       1  RES111      0.0514
     76 C          21.8049    3.4349   17.5390 C.3     1  RES111      0.0396
     77 H          21.5739    2.4841   17.6849 H       1  RES111      0.0514
     78 H          21.1252    3.9840   18.0067 H       1  RES111      0.0514
     79 C          29.9737    8.9255   13.8951 C.ar    1  RES111     -0.0295
     80 C          30.1880    7.7102   14.5105 C.ar    1  RES111     -0.0524
     81 H          30.7069    7.6633   15.3031 H       1  RES111      0.0624
     82 C          29.6356    6.5485   13.9539 C.ar    1  RES111     -0.0296
     83 C          28.8321    6.6456   12.8098 C.ar    1  RES111     -0.0524
     84 H          28.4538    5.8622   12.4236 H       1  RES111      0.0624
     85 C          28.5877    7.8877   12.2412 C.ar    1  RES111     -0.0295
     86 C          29.1870    9.0226   12.7781 C.ar    1  RES111     -0.0524
     87 H          29.0531    9.8663   12.3678 H       1  RES111      0.0624
     88 C          30.6232   10.1408   14.5268 C.3     1  RES111      0.0396
     89 H          30.8844    9.9198   15.4576 H       1  RES111      0.0514
     90 H          31.4502   10.3584   14.0286 H       1  RES111      0.0514
     91 C          29.9101    5.2127   14.6122 C.3     1  RES111      0.0373
     92 H          30.6299    4.7473   14.1144 H       1  RES111      0.0513
     93 H          30.2349    5.3700   15.5349 H       1  RES111      0.0513
     94 C          27.7541    7.9513   10.9808 C.3     1  RES111      0.0396
     95 H          28.3534    8.0785   10.2007 H       1  RES111      0.0514
     96 H          27.2787    7.0909   10.8615 H       1  RES111      0.0514
     97 C          24.6874    8.4769   20.0923 C.3     1  RES111      0.0306
     98 H          24.7778    9.0059   19.2598 H       1  RES111      0.0480
     99 H          23.8136    8.0149   20.0537 H       1  RES111      0.0480
    100 C          25.7956    7.4256   20.1271 C.3     1  RES111      0.0306
    101 H          25.7755    6.9268   19.2727 H       1  RES111      0.0480
    102 H          26.6660    7.8977   20.1696 H       1  RES111      0.0480
    103 C          22.2234    5.0620   15.7323 C.3     1  RES111      0.0307
    104 H          22.2970    5.1022   14.7453 H       1  RES111      0.0480
    105 H          23.1306    5.1926   16.1056 H       1  RES111      0.0480
    106 C          21.3261    6.1970   16.2052 C.3     1  RES111      0.0306
    107 H          21.2290    6.1434   17.1871 H       1  RES111      0.0480
    108 H          21.7580    7.0607   15.9898 H       1  RES111      0.0480
    109 C          24.7745    7.9245   12.0636 C.3     1  RES111      0.0308
    110 H          25.2331    7.0507   11.9773 H       1  RES111      0.0480
    111 H          24.2656    7.9111   12.9128 H       1  RES111      0.0480
    112 C          25.8290    9.0092   12.1601 C.3     1  RES111      0.0306
    113 H          25.3771    9.8863   12.2348 H       1  RES111      0.0480
    114 H          26.3513    8.8719   12.9901 H       1  RES111      0.0480
    115 C          28.5174   11.0983   15.2388 C.3     1  RES111      0.0307
    116 H          28.0052   10.3751   14.7925 H       1  RES111      0.0480
    117 H          27.9951   11.9319   15.1444 H       1  RES111      0.0480
    118 C          28.6480   10.7769   16.6721 C.3     1  RES111      0.0306
    119 H          29.3176   10.0604   16.7922 H       1  RES111      0.0480
    120 H          27.7809   10.4521   17.0197 H       1  RES111      0.0480
    121 C          22.9164   11.9286   16.1271 C.3     1  RES111      0.0283
    122 H          23.7634   11.5101   16.4146 H       1  RES111      0.0479
    123 H          22.9264   11.9754   15.1401 H       1  RES111      0.0479
    124 C          21.7547   11.0045   16.5519 C.3     1  RES111     -0.0005
    125 H          21.9254   10.0973   16.1915 H       1  RES111      0.0454
    126 H          21.7480   10.9376   17.5390 H       1  RES111      0.0454
    127 C          27.5900    4.8645   15.4276 C.3     1  RES111      0.0283
    128 H          26.7966    4.3021   15.2388 H       1  RES111      0.0479
    129 H          27.3925    5.7818   15.1100 H       1  RES111      0.0479
    130 C          27.8177    4.9047   16.9296 C.3     1  RES111      0.0305
    131 H          28.6245    5.4470   17.1098 H       1  RES111      0.0480
    132 H          27.0477    5.3600   17.3501 H       1  RES111      0.0480
    133 C          23.8605    9.1297   22.2895 C.2     1  RES111      0.1365
    134 C          23.6763   10.0738   23.4388 C.3     1  RES111     -0.3555
    135 C          23.3047   11.5168   23.0019 C.3     1  RES111     -0.3886
    136 H          24.0312   11.8917   22.4483 H       1  RES111     -0.2134
    137 H          22.4778   11.4967   22.4569 H       1  RES111     -0.2134
    138 C          24.9285   10.0839   24.4224 C.3     1  RES111     -0.3886
    139 H          25.1092    9.1666   24.7442 H       1  RES111     -0.2134
    140 H          25.7320   10.4086   23.9417 H       1  RES111     -0.2134
    141 C          22.5146    9.5214   24.2979 C.3     1  RES111     -0.3886
    142 H          21.7044    9.4344   23.7357 H       1  RES111     -0.2134
    143 H          22.7523    8.6208   24.6283 H       1  RES111     -0.2134
    144 C          26.4986    6.7058   22.3539 C.2     1  RES111      0.1365
    145 C          26.6125    5.7283   23.4954 C.3     1  RES111     -0.3555
    146 C          27.7574    6.1903   24.3923 C.3     1  RES111     -0.3886
    147 H          27.5566    7.0942   24.7442 H       1  RES111     -0.2134
    148 H          28.5911    6.2438   23.8645 H       1  RES111     -0.2134
    149 C          27.0209    4.3054   22.9654 C.3     1  RES111     -0.3886
    150 H          26.3145    3.9572   22.3625 H       1  RES111     -0.2134
    151 H          27.8646    4.3657   22.4526 H       1  RES111     -0.2134
    152 C          25.3536    5.6178   24.3580 C.3     1  RES111     -0.3886
    153 H          25.1427    6.5016   24.7485 H       1  RES111     -0.2134
    154 H          24.5903    5.3432   23.7915 H       1  RES111     -0.2134
    155 C          21.1487    2.9763   15.1358 C.2     1  RES111      0.1601
    156 C          20.6666    1.5133   15.4147 C.3     1  RES111     -0.2553
    157 C          21.8450    0.5993   15.8911 C.3     1  RES111     -0.3642
    158 H          22.5715    0.6127   15.2173 H       1  RES111     -0.2115
    159 H          22.2066    0.9408   16.7450 H       1  RES111     -0.2115
    160 C          19.5183    1.4429   16.4790 C.3     1  RES111     -0.3642
    161 H          19.8464    1.7610   17.3544 H       1  RES111     -0.2115
    162 H          18.7583    2.0154   16.2000 H       1  RES111     -0.2115
    163 C          18.9257    5.7350   16.4103 C.2     1  RES111      0.1365
    164 C          17.4526    5.8488   15.8953 C.3     1  RES111     -0.3555
    165 C          17.1479    4.7038   14.8912 C.3     1  RES111     -0.3886
    166 H          17.3823    3.8266   15.2945 H       1  RES111     -0.2134
    167 H          17.6836    4.8210   14.0672 H       1  RES111     -0.2134
    168 C          17.0776    7.1679   15.3160 C.3     1  RES111     -0.3886
    169 H          17.6870    7.3754   14.5650 H       1  RES111     -0.2134
    170 H          17.2049    7.8676   16.0069 H       1  RES111     -0.2134
    171 C          16.5554    5.6747   17.1527 C.3     1  RES111     -0.3886
    172 H          16.7362    4.7942   17.5733 H       1  RES111     -0.2134
    173 H          16.7629    6.3811   17.8136 H       1  RES111     -0.2134
    174 C          24.0747    7.3687    9.7900 C.2     1  RES111      0.2221
    175 C          23.0536    7.3453    8.6296 C.3     1  RES111      0.0473
    176 C          21.6475    6.9569    9.0956 C.3     1  RES111     -0.0381
    177 H          21.6743    6.0865    9.5612 H       1  RES111      0.0275
    178 H          21.3027    7.6366    9.7286 H       1  RES111      0.0275
    179 C          23.5458    6.1936    7.6816 C.3     1  RES111     -0.0381
    180 H          24.4698    6.3777    7.3769 H       1  RES111      0.0275
    181 H          23.5458    5.3332    8.1708 H       1  RES111      0.0275
    182 C          23.1106    8.6677    7.8301 C.3     1  RES111     -0.0381
    183 H          24.0279    8.8351    7.5014 H       1  RES111      0.0275
    184 H          22.8327    9.4277    8.3983 H       1  RES111      0.0275
    185 C          26.4785    9.9232   10.0204 C.2     1  RES111      0.1365
    186 C          27.4093   10.1307    8.8137 C.3     1  RES111     -0.3555
    187 C          27.4863    8.9523    7.8447 C.3     1  RES111     -0.3886
    188 H          26.5823    8.7280    7.5099 H       1  RES111     -0.2134
    189 H          27.8545    8.1588    8.3039 H       1  RES111     -0.2134
    190 C          28.8455   10.5325    9.3171 C.3     1  RES111     -0.3886
    191 H          29.2439    9.7859    9.8273 H       1  RES111     -0.2134
    192 H          28.7852   11.3192    9.9131 H       1  RES111     -0.2134
    193 C          26.8769   11.3159    7.9863 C.3     1  RES111     -0.3886
    194 H          25.9630   11.0983    7.6730 H       1  RES111     -0.2134
    195 H          26.8066   12.1094    8.5785 H       1  RES111     -0.2134
    196 C          30.1847   12.5379   14.2818 C.2     1  RES111      0.1635
    197 C          31.5506   12.8057   13.5050 C.3     1  RES111     -0.2139
    198 C          31.5707   12.0658   12.1189 C.3     1  RES111     -0.3607
    199 H          30.8141   12.3705   11.5567 H       1  RES111     -0.2114
    200 H          31.4970   11.0882   12.2477 H       1  RES111     -0.2114
    201 C          34.0448   12.9396   13.6080 C.3     1  RES111     -0.0387
    202 H          34.8382   12.7488   14.1831 H       1  RES111      0.0305
    203 C          32.7625   12.5680   14.4191 C.3     1  RES111     -0.0901
    204 H          32.7994   11.6206   14.6980 H       1  RES111      0.0229
    205 H          32.6956   13.1338   15.2259 H       1  RES111      0.0229
    206 C          31.5540   14.3357   13.1875 C.3     1  RES111     -0.3607
    207 H          30.7069   14.5634   12.7240 H       1  RES111     -0.2114
    208 H          31.5707   14.8345   14.0415 H       1  RES111     -0.2114
    209 C          30.4257   11.9051   17.8951 C.2     1  RES111      0.1365
    210 C          30.9748   13.0401   18.7920 C.3     1  RES111     -0.3555
    211 C          32.3675   12.5546   19.1911 C.3     1  RES111     -0.3886
    212 H          32.9232   12.4475   18.3801 H       1  RES111     -0.2134
    213 H          32.2938   11.6741   19.6332 H       1  RES111     -0.2134
    214 C          30.1746   13.4150   20.0194 C.3     1  RES111     -0.3886
    215 H          30.0206   12.6015   20.5644 H       1  RES111     -0.2134
    216 H          29.2941   13.7599   19.7319 H       1  RES111     -0.2134
    217 C          31.1924   14.3190   17.9423 C.3     1  RES111     -0.3886
    218 H          31.7180   14.0880   17.1356 H       1  RES111     -0.2134
    219 H          30.3152   14.6671   17.6462 H       1  RES111     -0.2134
    220 C          22.4544   14.2989   15.7709 C.2     1  RES111      0.1891
    221 C          22.5782   15.7686   16.2301 C.3     1  RES111     -0.1107
    222 C          23.9274   16.1168   16.8137 C.3     1  RES111     -0.3342
    223 H          24.1015   15.5276   17.5904 H       1  RES111     -0.2093
    224 H          24.6238   15.9360   16.1357 H       1  RES111     -0.2093
    225 H          23.1876   16.3980   14.3462 H       1  RES111      0.0000
    226 C          19.6488   12.0625   17.0755 C.3     1  RES111     -0.1777
    227 C          17.3890   11.2523   16.2000 C.3     1  RES111     -0.0531
    228 H          17.4225   10.5191   16.8695 H       1  RES111      0.0265
    229 H          17.8242   10.9208   15.3761 H       1  RES111      0.0265
    230 H          17.5999   12.1529   18.7191 H       1  RES111      0.0000
    231 C          28.6413    3.0801   14.1831 C.2     1  RES111      0.0360
    232 C          29.7561    2.4205   13.2647 C.3     1  RES111     -0.4042
    233 C          30.2081    3.3680   12.0588 C.3     1  RES111     -0.2255
    234 H          29.4381    3.5789   11.4795 H       1  RES111     -0.0122
    235 H          30.5864    4.2150   12.4064 H       1  RES111     -0.0122
    236 C          29.2372    1.1651   12.6725 C.3     1  RES111     -0.5030
    237 H          28.9694    0.5691   13.4192 H       1  RES111     -0.2416
    238 H          28.4103    1.3894   12.1704 H       1  RES111     -0.2416
    239 C          29.2506    3.1905   17.8634 C.2     1  RES111      0.1365
    240 C          29.5017    1.8514   18.6178 C.3     1  RES111     -0.3555
    241 C          29.2305    0.6194   17.7239 C.3     1  RES111     -0.3886
    242 H          28.2764    0.5993   17.4660 H       1  RES111     -0.2134
    243 H          29.7729    0.6830   16.8995 H       1  RES111     -0.2134
    244 C          28.6848    1.7510   19.9413 C.3     1  RES111     -0.3886
    245 H          28.9125    2.5076   20.5343 H       1  RES111     -0.2134
    246 H          27.7173    1.7911   19.7404 H       1  RES111     -0.2134
    247 C          30.9915    1.8313   18.9852 C.3     1  RES111     -0.3886
    248 H          31.2091    2.6248   19.5345 H       1  RES111     -0.2134
    249 H          31.5372    1.8681   18.1569 H       1  RES111     -0.2134
@<TRIPOS>BOND
     1     1   133    2
     2     2   144    2
     3     3   155    2
     4     4   163    2
     5     5   174    2
     6     6   185    2
     7     7   196    2
     8     8   209    2
     9     9   220    2
    10    10   226    2
    11    11   231    2
    12    12   239    2
    13    13    37    1
    14    13    97    1
    15    13   133   am
    16    14    73    1
    17    14   100    1
    18    14   144   am
    19    15    76    1
    20    15   103    1
    21    15   155   am
    22    16    52    1
    23    16   106    1
    24    16   163   am
    25    17    58    1
    26    17   109    1
    27    17   174   am
    28    18    94    1
    29    18   112    1
    30    18   185   am
    31    19    88    1
    32    19   115    1
    33    19   196   am
    34    20    40    1
    35    20   118    1
    36    20   209   am
    37    21    34    1
    38    21   121    1
    39    21   220   am
    40    22    55    1
    41    22   124    1
    42    22   226   am
    43    23    91    1
    44    23   127    1
    45    23   231   am
    46    24    70    1
    47    24   130    1
    48    24   239   am
    49    25    26   ar
    50    25    32   ar
    51    25    34    1
    52    26    27    1
    53    26    28   ar
    54    28    29   ar
    55    28    37    1
    56    29    30    1
    57    29    31   ar
    58    31    32   ar
    59    31    40    1
    60    32    33    1
    61    34    35    1
    62    34    36    1
    63    37    38    1
    64    37    39    1
    65    40    41    1
    66    40    42    1
    67    43    44   ar
    68    43    50   ar
    69    43    52    1
    70    44    45    1
    71    44    46   ar
    72    46    47   ar
    73    46    55    1
    74    47    48    1
    75    47    49   ar
    76    49    50   ar
    77    49    58    1
    78    50    51    1
    79    52    53    1
    80    52    54    1
    81    55    56    1
    82    55    57    1
    83    58    59    1
    84    58    60    1
    85    61    62   ar
    86    61    68   ar
    87    61    70    1
    88    62    63    1
    89    62    64   ar
    90    64    65   ar
    91    64    73    1
    92    65    66    1
    93    65    67   ar
    94    67    68   ar
    95    67    76    1
    96    68    69    1
    97    70    71    1
    98    70    72    1
    99    73    74    1
   100    73    75    1
   101    76    77    1
   102    76    78    1
   103    79    80   ar
   104    79    86   ar
   105    79    88    1
   106    80    81    1
   107    80    82   ar
   108    82    83   ar
   109    82    91    1
   110    83    84    1
   111    83    85   ar
   112    85    86   ar
   113    85    94    1
   114    86    87    1
   115    88    89    1
   116    88    90    1
   117    91    92    1
   118    91    93    1
   119    94    95    1
   120    94    96    1
   121    97    98    1
   122    97    99    1
   123    97   100    1
   124   100   101    1
   125   100   102    1
   126   103   104    1
   127   103   105    1
   128   103   106    1
   129   106   107    1
   130   106   108    1
   131   109   110    1
   132   109   111    1
   133   109   112    1
   134   112   113    1
   135   112   114    1
   136   115   116    1
   137   115   117    1
   138   115   118    1
   139   118   119    1
   140   118   120    1
   141   121   122    1
   142   121   123    1
   143   121   124    1
   144   124   125    1
   145   124   126    1
   146   127   128    1
   147   127   129    1
   148   127   130    1
   149   130   131    1
   150   130   132    1
   151   133   134    1
   152   134   135    1
   153   134   138    1
   154   134   141    1
   155   135   136    1
   156   135   137    1
   157   138   139    1
   158   138   140    1
   159   141   142    1
   160   141   143    1
   161   144   145    1
   162   145   146    1
   163   145   149    1
   164   145   152    1
   165   146   147    1
   166   146   148    1
   167   149   150    1
   168   149   151    1
   169   152   153    1
   170   152   154    1
   171   155   156    1
   172   156   157    1
   173   156   160    1
   174   157   158    1
   175   157   159    1
   176   160   161    1
   177   160   162    1
   178   163   164    1
   179   164   165    1
   180   164   168    1
   181   164   171    1
   182   165   166    1
   183   165   167    1
   184   168   169    1
   185   168   170    1
   186   171   172    1
   187   171   173    1
   188   174   175    1
   189   175   176    1
   190   175   179    1
   191   175   182    1
   192   176   177    1
   193   176   178    1
   194   179   180    1
   195   179   181    1
   196   182   183    1
   197   182   184    1
   198   185   186    1
   199   186   187    1
   200   186   190    1
   201   186   193    1
   202   187   188    1
   203   187   189    1
   204   190   191    1
   205   190   192    1
   206   193   194    1
   207   193   195    1
   208   196   197    1
   209   197   198    1
   210   197   203    1
   211   197   206    1
   212   198   199    1
   213   198   200    1
   214   201   202    1
   215   201   203    1
   216   203   204    1
   217   203   205    1
   218   206   207    1
   219   206   208    1
   220   209   210    1
   221   210   211    1
   222   210   214    1
   223   210   217    1
   224   211   212    1
   225   211   213    1
   226   214   215    1
   227   214   216    1
   228   217   218    1
   229   217   219    1
   230   220   221    1
   231   221   222    1
   232   222   223    1
   233   222   224    1
   234   227   228    1
   235   227   229    1
   236   231   232    1
   237   232   233    1
   238   232   236    1
   239   233   234    1
   240   233   235    1
   241   236   237    1
   242   236   238    1
   243   239   240    1
   244   240   241    1
   245   240   244    1
   246   240   247    1
   247   241   242    1
   248   241   243    1
   249   244   245    1
   250   244   246    1
   251   247   248    1
   252   247   249    1
