@<TRIPOS>MOLECULE
*****
 348 378 0 0 0
SMALL
USER_CHARGES

@<TRIPOS>ATOM
      1 N1         15.8480   13.8082   20.6997 N.am    1  RES11      -0.2917
      2 O1         14.0127   13.7871   21.9430 O.2     1  RES11      -0.2700
      3 C1         17.0681   11.8558   18.8652 C.ar    1  RES11      -0.0524
      4 H1         16.2936   11.5549   19.3226 H       1  RES11       0.0624
      5 C2         17.7410   12.9800   19.3283 C.ar    1  RES11      -0.0295
      6 C3         17.3121   13.7159   20.5728 C.3     1  RES11       0.0401
      7 H3A        17.6760   13.2504   21.3657 H       1  RES11       0.0514
      8 H3B        17.6922   14.6307   20.5546 H       1  RES11       0.0514
      9 C4         15.1511   14.5169   19.6052 C.3     1  RES11       0.0311
     10 H4A        15.4703   14.1570   18.7412 H       1  RES11       0.0480
     11 H4B        14.1814   14.3258   19.6702 H       1  RES11       0.0480
     12 C5         15.1796   13.5025   21.8088 C.2     1  RES11       0.2470
     13 C6         15.9155   12.9556   23.0042 C.ar    1  RES11       0.0375
     14 C7         16.1208   11.6525   23.1180 C.ar    1  RES11      -0.0419
     15 H7         15.8362   11.0752   22.4207 H       1  RES11       0.0631
     16 C8         16.7754   11.0853   24.3012 C.ar    1  RES11      -0.0172
     17 C9         16.9990    9.7030   24.4496 C.ar    1  RES11      -0.0540
     18 H9         16.6819    9.0992   23.7889 H       1  RES11       0.0624
     19 C10        17.6394    9.2476   25.4904 C.ar    1  RES11      -0.0612
     20 H10        17.7593    8.3105   25.5738 H       1  RES11       0.0618
     21 C11        18.1252   10.0282   26.4316 C.ar    1  RES11      -0.0612
     22 H11        18.6396    9.6542   27.1391 H       1  RES11       0.0618
     23 C12        17.8996   11.3578   26.3971 C.ar    1  RES11      -0.0540
     24 H12        18.2167   11.9168   27.0964 H       1  RES11       0.0624
     25 C13        17.1759   11.9249   25.2953 C.ar    1  RES11      -0.0178
     26 C14        16.9502   13.2951   25.1753 C.ar    1  RES11      -0.0533
     27 H14        17.2247   13.8846   25.8685 H       1  RES11       0.0624
     28 C15        16.3282   13.7972   24.0450 C.ar    1  RES11      -0.0490
     29 H15        16.1757   14.7324   23.9739 H       1  RES11       0.0625
     30 N1         14.6453   16.6851   20.6997 N.am    1  RES11      -0.2917
     31 O1         16.4806   16.7063   21.9430 O.2     1  RES11      -0.2700
     32 C1         13.4252   18.6375   18.8652 C.ar    1  RES11      -0.0524
     33 H1         14.1997   18.9384   19.3226 H       1  RES11       0.0624
     34 C2         12.7523   17.5133   19.3283 C.ar    1  RES11      -0.0295
     35 C3         13.1813   16.7774   20.5728 C.3     1  RES11       0.0401
     36 H3A        12.8174   17.2430   21.3657 H       1  RES11       0.0514
     37 H3B        12.8011   15.8626   20.5546 H       1  RES11       0.0514
     38 C4         15.3422   15.9765   19.6052 C.3     1  RES11       0.0311
     39 H4A        15.0231   16.3363   18.7412 H       1  RES11       0.0480
     40 H4B        16.3119   16.1676   19.6702 H       1  RES11       0.0480
     41 C5         15.3138   16.9909   21.8088 C.2     1  RES11       0.2470
     42 C6         14.5779   17.5377   23.0042 C.ar    1  RES11       0.0375
     43 C7         14.3725   18.8408   23.1180 C.ar    1  RES11      -0.0419
     44 H7         14.6571   19.4182   22.4207 H       1  RES11       0.0631
     45 C8         13.7179   19.4080   24.3012 C.ar    1  RES11      -0.0172
     46 C9         13.4943   20.7904   24.4496 C.ar    1  RES11      -0.0540
     47 H9         13.8115   21.3941   23.7889 H       1  RES11       0.0624
     48 C10        12.8540   21.2457   25.4904 C.ar    1  RES11      -0.0612
     49 H10        12.7340   22.1829   25.5738 H       1  RES11       0.0618
     50 C11        12.3681   20.4651   26.4316 C.ar    1  RES11      -0.0612
     51 H11        11.8538   20.8392   27.1391 H       1  RES11       0.0618
     52 C12        12.5938   19.1356   26.3971 C.ar    1  RES11      -0.0540
     53 H12        12.2766   18.5765   27.0964 H       1  RES11       0.0624
     54 C13        13.3175   18.5684   25.2953 C.ar    1  RES11      -0.0178
     55 C14        13.5431   17.1982   25.1753 C.ar    1  RES11      -0.0533
     56 H14        13.2687   16.6087   25.8685 H       1  RES11       0.0624
     57 C15        14.1652   16.6961   24.0450 C.ar    1  RES11      -0.0490
     58 H15        14.3176   15.7610   23.9739 H       1  RES11       0.0625
     59 N1         20.6997   14.6453   16.6851 N.am    1  RES11      -0.2917
     60 O1         21.9430   16.4806   16.7063 O.2     1  RES11      -0.2700
     61 C1         18.8652   13.4252   18.6375 C.ar    1  RES11      -0.0524
     62 H1         19.3226   14.1997   18.9384 H       1  RES11       0.0624
     63 C2         19.3283   12.7523   17.5133 C.ar    1  RES11      -0.0295
     64 C3         20.5728   13.1813   16.7774 C.3     1  RES11       0.0401
     65 H3A        21.3657   12.8174   17.2430 H       1  RES11       0.0514
     66 H3B        20.5546   12.8011   15.8626 H       1  RES11       0.0514
     67 C4         19.6052   15.3422   15.9765 C.3     1  RES11       0.0311
     68 H4A        18.7412   15.0231   16.3363 H       1  RES11       0.0480
     69 H4B        19.6702   16.3119   16.1676 H       1  RES11       0.0480
     70 C5         21.8088   15.3138   16.9909 C.2     1  RES11       0.2470
     71 C6         23.0042   14.5779   17.5377 C.ar    1  RES11       0.0375
     72 C7         23.1180   14.3725   18.8408 C.ar    1  RES11      -0.0419
     73 H7         22.4207   14.6571   19.4182 H       1  RES11       0.0631
     74 C8         24.3012   13.7179   19.4080 C.ar    1  RES11      -0.0172
     75 C9         24.4496   13.4943   20.7904 C.ar    1  RES11      -0.0540
     76 H9         23.7889   13.8115   21.3941 H       1  RES11       0.0624
     77 C10        25.4904   12.8540   21.2457 C.ar    1  RES11      -0.0612
     78 H10        25.5738   12.7340   22.1829 H       1  RES11       0.0618
     79 C11        26.4316   12.3681   20.4651 C.ar    1  RES11      -0.0612
     80 H11        27.1391   11.8538   20.8392 H       1  RES11       0.0618
     81 C12        26.3971   12.5938   19.1356 C.ar    1  RES11      -0.0540
     82 H12        27.0964   12.2766   18.5765 H       1  RES11       0.0624
     83 C13        25.2953   13.3175   18.5684 C.ar    1  RES11      -0.0178
     84 C14        25.1753   13.5431   17.1982 C.ar    1  RES11      -0.0533
     85 H14        25.8685   13.2687   16.6087 H       1  RES11       0.0624
     86 C15        24.0450   14.1652   16.6961 C.ar    1  RES11      -0.0490
     87 H15        23.9739   14.3176   15.7610 H       1  RES11       0.0625
     88 N1         16.6851    9.7937   15.8480 N.am    1  RES11      -0.2917
     89 O1         16.7063    8.5503   14.0127 O.2     1  RES11      -0.2700
     90 C1         18.6375   11.6281   17.0681 C.ar    1  RES11      -0.0524
     91 H1         18.9384   11.1707   16.2936 H       1  RES11       0.0624
     92 C2         17.5133   11.1650   17.7410 C.ar    1  RES11      -0.0295
     93 C3         16.7774    9.9205   17.3121 C.3     1  RES11       0.0401
     94 H3A        17.2430    9.1277   17.6760 H       1  RES11       0.0514
     95 H3B        15.8626    9.9388   17.6922 H       1  RES11       0.0514
     96 C4         15.9765   10.8882   15.1511 C.3     1  RES11       0.0311
     97 H4A        16.3363   11.7521   15.4703 H       1  RES11       0.0480
     98 H4B        16.1676   10.8231   14.1814 H       1  RES11       0.0480
     99 C5         16.9909    8.6845   15.1796 C.2     1  RES11       0.2470
    100 C6         17.5377    7.4892   15.9155 C.ar    1  RES11       0.0375
    101 C7         18.8408    7.3753   16.1208 C.ar    1  RES11      -0.0419
    102 H7         19.4182    8.0726   15.8362 H       1  RES11       0.0631
    103 C8         19.4080    6.1922   16.7754 C.ar    1  RES11      -0.0172
    104 C9         20.7904    6.0438   16.9990 C.ar    1  RES11      -0.0540
    105 H9         21.3941    6.7045   16.6819 H       1  RES11       0.0624
    106 C10        21.2457    5.0029   17.6394 C.ar    1  RES11      -0.0612
    107 H10        22.1829    4.9196   17.7593 H       1  RES11       0.0618
    108 C11        20.4651    4.0617   18.1252 C.ar    1  RES11      -0.0612
    109 H11        20.8392    3.3543   18.6396 H       1  RES11       0.0618
    110 C12        19.1356    4.0963   17.8996 C.ar    1  RES11      -0.0540
    111 H12        18.5765    3.3970   18.2167 H       1  RES11       0.0624
    112 C13        18.5684    5.1981   17.1759 C.ar    1  RES11      -0.0178
    113 C14        17.1982    5.3180   16.9502 C.ar    1  RES11      -0.0533
    114 H14        16.6087    4.6248   17.2247 H       1  RES11       0.0624
    115 C15        16.6961    6.4483   16.3282 C.ar    1  RES11      -0.0490
    116 H15        15.7610    6.5195   16.1757 H       1  RES11       0.0625
    117 N1         20.6997   15.8480   13.8082 N.am    1  RES11      -0.2917
    118 O1         21.9430   14.0127   13.7871 O.2     1  RES11      -0.2700
    119 C1         18.8652   17.0681   11.8558 C.ar    1  RES11      -0.0524
    120 H1         19.3226   16.2936   11.5549 H       1  RES11       0.0624
    121 C2         19.3283   17.7410   12.9800 C.ar    1  RES11      -0.0295
    122 C3         20.5728   17.3121   13.7159 C.3     1  RES11       0.0401
    123 H3A        21.3657   17.6760   13.2504 H       1  RES11       0.0514
    124 H3B        20.5546   17.6922   14.6307 H       1  RES11       0.0514
    125 C4         19.6052   15.1511   14.5169 C.3     1  RES11       0.0311
    126 H4A        18.7412   15.4703   14.1570 H       1  RES11       0.0480
    127 H4B        19.6702   14.1814   14.3258 H       1  RES11       0.0480
    128 C5         21.8088   15.1796   13.5025 C.2     1  RES11       0.2470
    129 C6         23.0042   15.9155   12.9556 C.ar    1  RES11       0.0375
    130 C7         23.1180   16.1208   11.6525 C.ar    1  RES11      -0.0419
    131 H7         22.4207   15.8362   11.0752 H       1  RES11       0.0631
    132 C8         24.3012   16.7754   11.0853 C.ar    1  RES11      -0.0172
    133 C9         24.4496   16.9990    9.7030 C.ar    1  RES11      -0.0540
    134 H9         23.7889   16.6819    9.0992 H       1  RES11       0.0624
    135 C10        25.4904   17.6394    9.2476 C.ar    1  RES11      -0.0612
    136 H10        25.5738   17.7593    8.3105 H       1  RES11       0.0618
    137 C11        26.4316   18.1252   10.0282 C.ar    1  RES11      -0.0612
    138 H11        27.1391   18.6396    9.6542 H       1  RES11       0.0618
    139 C12        26.3971   17.8996   11.3578 C.ar    1  RES11      -0.0540
    140 H12        27.0964   18.2167   11.9168 H       1  RES11       0.0624
    141 C13        25.2953   17.1759   11.9249 C.ar    1  RES11      -0.0178
    142 C14        25.1753   16.9502   13.2951 C.ar    1  RES11      -0.0533
    143 H14        25.8685   17.2247   13.8846 H       1  RES11       0.0624
    144 C15        24.0450   16.3282   13.7972 C.ar    1  RES11      -0.0490
    145 H15        23.9739   16.1757   14.7324 H       1  RES11       0.0625
    146 N1          9.7937   15.8480   16.6851 N.am    1  RES11      -0.2917
    147 O1          8.5503   14.0127   16.7063 O.2     1  RES11      -0.2700
    148 C1         11.6281   17.0681   18.6375 C.ar    1  RES11      -0.0524
    149 H1         11.1707   16.2936   18.9384 H       1  RES11       0.0624
    150 C2         11.1650   17.7410   17.5133 C.ar    1  RES11      -0.0295
    151 C3          9.9205   17.3121   16.7774 C.3     1  RES11       0.0401
    152 H3A         9.1277   17.6760   17.2430 H       1  RES11       0.0514
    153 H3B         9.9388   17.6922   15.8626 H       1  RES11       0.0514
    154 C4         10.8882   15.1511   15.9765 C.3     1  RES11       0.0311
    155 H4A        11.7521   15.4703   16.3363 H       1  RES11       0.0480
    156 H4B        10.8231   14.1814   16.1676 H       1  RES11       0.0480
    157 C5          8.6845   15.1796   16.9909 C.2     1  RES11       0.2470
    158 C6          7.4892   15.9155   17.5377 C.ar    1  RES11       0.0375
    159 C7          7.3753   16.1208   18.8408 C.ar    1  RES11      -0.0419
    160 H7          8.0726   15.8362   19.4182 H       1  RES11       0.0631
    161 C8          6.1922   16.7754   19.4080 C.ar    1  RES11      -0.0172
    162 C9          6.0438   16.9990   20.7904 C.ar    1  RES11      -0.0540
    163 H9          6.7045   16.6819   21.3941 H       1  RES11       0.0624
    164 C10         5.0029   17.6394   21.2457 C.ar    1  RES11      -0.0612
    165 H10         4.9196   17.7593   22.1829 H       1  RES11       0.0618
    166 C11         4.0617   18.1252   20.4651 C.ar    1  RES11      -0.0612
    167 H11         3.3543   18.6396   20.8392 H       1  RES11       0.0618
    168 C12         4.0963   17.8996   19.1356 C.ar    1  RES11      -0.0540
    169 H12         3.3970   18.2167   18.5765 H       1  RES11       0.0624
    170 C13         5.1981   17.1759   18.5684 C.ar    1  RES11      -0.0178
    171 C14         5.3180   16.9502   17.1982 C.ar    1  RES11      -0.0533
    172 H14         4.6248   17.2247   16.6087 H       1  RES11       0.0624
    173 C15         6.4483   16.3282   16.6961 C.ar    1  RES11      -0.0490
    174 H15         6.5195   16.1757   15.7610 H       1  RES11       0.0625
    175 N1         13.8082   20.6997   15.8480 N.am    1  RES11      -0.2917
    176 O1         13.7871   21.9430   14.0127 O.2     1  RES11      -0.2700
    177 C1         11.8558   18.8652   17.0681 C.ar    1  RES11      -0.0524
    178 H1         11.5549   19.3226   16.2936 H       1  RES11       0.0624
    179 C2         12.9800   19.3283   17.7410 C.ar    1  RES11      -0.0295
    180 C3         13.7159   20.5728   17.3121 C.3     1  RES11       0.0401
    181 H3A        13.2504   21.3657   17.6760 H       1  RES11       0.0514
    182 H3B        14.6307   20.5546   17.6922 H       1  RES11       0.0514
    183 C4         14.5169   19.6052   15.1511 C.3     1  RES11       0.0311
    184 H4A        14.1570   18.7412   15.4703 H       1  RES11       0.0480
    185 H4B        14.3258   19.6702   14.1814 H       1  RES11       0.0480
    186 C5         13.5025   21.8088   15.1796 C.2     1  RES11       0.2470
    187 C6         12.9556   23.0042   15.9155 C.ar    1  RES11       0.0375
    188 C7         11.6525   23.1180   16.1208 C.ar    1  RES11      -0.0419
    189 H7         11.0752   22.4207   15.8362 H       1  RES11       0.0631
    190 C8         11.0853   24.3012   16.7754 C.ar    1  RES11      -0.0172
    191 C9          9.7030   24.4496   16.9990 C.ar    1  RES11      -0.0540
    192 H9          9.0992   23.7889   16.6819 H       1  RES11       0.0624
    193 C10         9.2476   25.4904   17.6394 C.ar    1  RES11      -0.0612
    194 H10         8.3105   25.5738   17.7593 H       1  RES11       0.0618
    195 C11        10.0282   26.4316   18.1252 C.ar    1  RES11      -0.0612
    196 H11         9.6542   27.1391   18.6396 H       1  RES11       0.0618
    197 C12        11.3578   26.3971   17.8996 C.ar    1  RES11      -0.0540
    198 H12        11.9168   27.0964   18.2167 H       1  RES11       0.0624
    199 C13        11.9249   25.2953   17.1759 C.ar    1  RES11      -0.0178
    200 C14        13.2951   25.1753   16.9502 C.ar    1  RES11      -0.0533
    201 H14        13.8846   25.8685   17.2247 H       1  RES11       0.0624
    202 C15        13.7972   24.0450   16.3282 C.ar    1  RES11      -0.0490
    203 H15        14.7324   23.9739   16.1757 H       1  RES11       0.0625
    204 N1         16.6851   20.6997   14.6453 N.am    1  RES11      -0.2917
    205 O1         16.7063   21.9430   16.4806 O.2     1  RES11      -0.2700
    206 C1         18.6375   18.8652   13.4252 C.ar    1  RES11      -0.0524
    207 H1         18.9384   19.3226   14.1997 H       1  RES11       0.0624
    208 C2         17.5133   19.3283   12.7523 C.ar    1  RES11      -0.0295
    209 C3         16.7774   20.5728   13.1813 C.3     1  RES11       0.0401
    210 H3A        17.2430   21.3657   12.8174 H       1  RES11       0.0514
    211 H3B        15.8626   20.5546   12.8011 H       1  RES11       0.0514
    212 C4         15.9765   19.6052   15.3422 C.3     1  RES11       0.0311
    213 H4A        16.3363   18.7412   15.0231 H       1  RES11       0.0480
    214 H4B        16.1676   19.6702   16.3119 H       1  RES11       0.0480
    215 C5         16.9909   21.8088   15.3138 C.2     1  RES11       0.2470
    216 C6         17.5377   23.0042   14.5779 C.ar    1  RES11       0.0375
    217 C7         18.8408   23.1180   14.3725 C.ar    1  RES11      -0.0419
    218 H7         19.4182   22.4207   14.6571 H       1  RES11       0.0631
    219 C8         19.4080   24.3012   13.7179 C.ar    1  RES11      -0.0172
    220 C9         20.7904   24.4496   13.4943 C.ar    1  RES11      -0.0540
    221 H9         21.3941   23.7889   13.8115 H       1  RES11       0.0624
    222 C10        21.2457   25.4904   12.8540 C.ar    1  RES11      -0.0612
    223 H10        22.1829   25.5738   12.7340 H       1  RES11       0.0618
    224 C11        20.4651   26.4316   12.3681 C.ar    1  RES11      -0.0612
    225 H11        20.8392   27.1391   11.8538 H       1  RES11       0.0618
    226 C12        19.1356   26.3971   12.5938 C.ar    1  RES11      -0.0540
    227 H12        18.5765   27.0964   12.2766 H       1  RES11       0.0624
    228 C13        18.5684   25.2953   13.3175 C.ar    1  RES11      -0.0178
    229 C14        17.1982   25.1753   13.5431 C.ar    1  RES11      -0.0533
    230 H14        16.6087   25.8685   13.2687 H       1  RES11       0.0624
    231 C15        16.6961   24.0450   14.1652 C.ar    1  RES11      -0.0490
    232 H15        15.7610   23.9739   14.3176 H       1  RES11       0.0625
    233 N1         13.8082    9.7937   14.6453 N.am    1  RES11      -0.2917
    234 O1         13.7871    8.5503   16.4806 O.2     1  RES11      -0.2700
    235 C1         11.8558   11.6281   13.4252 C.ar    1  RES11      -0.0524
    236 H1         11.5549   11.1707   14.1997 H       1  RES11       0.0624
    237 C2         12.9800   11.1650   12.7523 C.ar    1  RES11      -0.0295
    238 C3         13.7159    9.9205   13.1813 C.3     1  RES11       0.0401
    239 H3A        13.2504    9.1277   12.8174 H       1  RES11       0.0514
    240 H3B        14.6307    9.9388   12.8011 H       1  RES11       0.0514
    241 C4         14.5169   10.8882   15.3422 C.3     1  RES11       0.0311
    242 H4A        14.1570   11.7521   15.0231 H       1  RES11       0.0480
    243 H4B        14.3258   10.8231   16.3119 H       1  RES11       0.0480
    244 C5         13.5025    8.6845   15.3138 C.2     1  RES11       0.2470
    245 C6         12.9556    7.4892   14.5779 C.ar    1  RES11       0.0375
    246 C7         11.6525    7.3753   14.3725 C.ar    1  RES11      -0.0419
    247 H7         11.0752    8.0726   14.6571 H       1  RES11       0.0631
    248 C8         11.0853    6.1922   13.7179 C.ar    1  RES11      -0.0172
    249 C9          9.7030    6.0438   13.4943 C.ar    1  RES11      -0.0540
    250 H9          9.0992    6.7045   13.8115 H       1  RES11       0.0624
    251 C10         9.2476    5.0029   12.8540 C.ar    1  RES11      -0.0612
    252 H10         8.3105    4.9196   12.7340 H       1  RES11       0.0618
    253 C11        10.0282    4.0617   12.3681 C.ar    1  RES11      -0.0612
    254 H11         9.6542    3.3543   11.8538 H       1  RES11       0.0618
    255 C12        11.3578    4.0963   12.5938 C.ar    1  RES11      -0.0540
    256 H12        11.9168    3.3970   12.2766 H       1  RES11       0.0624
    257 C13        11.9249    5.1981   13.3175 C.ar    1  RES11      -0.0178
    258 C14        13.2951    5.3180   13.5431 C.ar    1  RES11      -0.0533
    259 H14        13.8846    4.6248   13.2687 H       1  RES11       0.0624
    260 C15        13.7972    6.4483   14.1652 C.ar    1  RES11      -0.0490
    261 H15        14.7324    6.5195   14.3176 H       1  RES11       0.0625
    262 N1         14.6453   13.8082    9.7937 N.am    1  RES11      -0.2917
    263 O1         16.4806   13.7871    8.5503 O.2     1  RES11      -0.2700
    264 C1         13.4252   11.8558   11.6281 C.ar    1  RES11      -0.0524
    265 H1         14.1997   11.5549   11.1707 H       1  RES11       0.0624
    266 C2         12.7523   12.9800   11.1650 C.ar    1  RES11      -0.0295
    267 C3         13.1813   13.7159    9.9205 C.3     1  RES11       0.0401
    268 H3A        12.8174   13.2504    9.1277 H       1  RES11       0.0514
    269 H3B        12.8011   14.6307    9.9388 H       1  RES11       0.0514
    270 C4         15.3422   14.5169   10.8882 C.3     1  RES11       0.0311
    271 H4A        15.0231   14.1570   11.7521 H       1  RES11       0.0480
    272 H4B        16.3119   14.3258   10.8231 H       1  RES11       0.0480
    273 C5         15.3138   13.5025    8.6845 C.2     1  RES11       0.2470
    274 C6         14.5779   12.9556    7.4892 C.ar    1  RES11       0.0375
    275 C7         14.3725   11.6525    7.3753 C.ar    1  RES11      -0.0419
    276 H7         14.6571   11.0752    8.0726 H       1  RES11       0.0631
    277 C8         13.7179   11.0853    6.1922 C.ar    1  RES11      -0.0172
    278 C9         13.4943    9.7030    6.0438 C.ar    1  RES11      -0.0540
    279 H9         13.8115    9.0992    6.7045 H       1  RES11       0.0624
    280 C10        12.8540    9.2476    5.0029 C.ar    1  RES11      -0.0612
    281 H10        12.7340    8.3105    4.9196 H       1  RES11       0.0618
    282 C11        12.3681   10.0282    4.0617 C.ar    1  RES11      -0.0612
    283 H11        11.8538    9.6542    3.3543 H       1  RES11       0.0618
    284 C12        12.5938   11.3578    4.0963 C.ar    1  RES11      -0.0540
    285 H12        12.2766   11.9168    3.3970 H       1  RES11       0.0624
    286 C13        13.3175   11.9249    5.1981 C.ar    1  RES11      -0.0178
    287 C14        13.5431   13.2951    5.3180 C.ar    1  RES11      -0.0533
    288 H14        13.2687   13.8846    4.6248 H       1  RES11       0.0624
    289 C15        14.1652   13.7972    6.4483 C.ar    1  RES11      -0.0490
    290 H15        14.3176   14.7324    6.5195 H       1  RES11       0.0625
    291 N1         15.8480   16.6851    9.7937 N.am    1  RES11      -0.2917
    292 O1         14.0127   16.7063    8.5503 O.2     1  RES11      -0.2700
    293 C1         17.0681   18.6375   11.6281 C.ar    1  RES11      -0.0524
    294 H1         16.2936   18.9384   11.1707 H       1  RES11       0.0624
    295 C2         17.7410   17.5133   11.1650 C.ar    1  RES11      -0.0295
    296 C3         17.3121   16.7774    9.9205 C.3     1  RES11       0.0401
    297 H3A        17.6760   17.2430    9.1277 H       1  RES11       0.0514
    298 H3B        17.6922   15.8626    9.9388 H       1  RES11       0.0514
    299 C4         15.1511   15.9765   10.8882 C.3     1  RES11       0.0311
    300 H4A        15.4703   16.3363   11.7521 H       1  RES11       0.0480
    301 H4B        14.1814   16.1676   10.8231 H       1  RES11       0.0480
    302 C5         15.1796   16.9909    8.6845 C.2     1  RES11       0.2470
    303 C6         15.9155   17.5377    7.4892 C.ar    1  RES11       0.0375
    304 C7         16.1208   18.8408    7.3753 C.ar    1  RES11      -0.0419
    305 H7         15.8362   19.4182    8.0726 H       1  RES11       0.0631
    306 C8         16.7754   19.4080    6.1922 C.ar    1  RES11      -0.0172
    307 C9         16.9990   20.7904    6.0438 C.ar    1  RES11      -0.0540
    308 H9         16.6819   21.3941    6.7045 H       1  RES11       0.0624
    309 C10        17.6394   21.2457    5.0029 C.ar    1  RES11      -0.0612
    310 H10        17.7593   22.1829    4.9196 H       1  RES11       0.0618
    311 C11        18.1252   20.4651    4.0617 C.ar    1  RES11      -0.0612
    312 H11        18.6396   20.8392    3.3543 H       1  RES11       0.0618
    313 C12        17.8996   19.1356    4.0963 C.ar    1  RES11      -0.0540
    314 H12        18.2167   18.5765    3.3970 H       1  RES11       0.0624
    315 C13        17.1759   18.5684    5.1981 C.ar    1  RES11      -0.0178
    316 C14        16.9502   17.1982    5.3180 C.ar    1  RES11      -0.0533
    317 H14        17.2247   16.6087    4.6248 H       1  RES11       0.0624
    318 C15        16.3282   16.6961    6.4483 C.ar    1  RES11      -0.0490
    319 H15        16.1757   15.7610    6.5195 H       1  RES11       0.0625
    320 N1          9.7937   14.6453   13.8082 N.am    1  RES11      -0.2917
    321 O1          8.5503   16.4806   13.7871 O.2     1  RES11      -0.2700
    322 C1         11.6281   13.4252   11.8558 C.ar    1  RES11      -0.0524
    323 H1         11.1707   14.1997   11.5549 H       1  RES11       0.0624
    324 C2         11.1650   12.7523   12.9800 C.ar    1  RES11      -0.0295
    325 C3          9.9205   13.1813   13.7159 C.3     1  RES11       0.0401
    326 H3A         9.1277   12.8174   13.2504 H       1  RES11       0.0514
    327 H3B         9.9388   12.8011   14.6307 H       1  RES11       0.0514
    328 C4         10.8882   15.3422   14.5169 C.3     1  RES11       0.0311
    329 H4A        11.7521   15.0231   14.1570 H       1  RES11       0.0480
    330 H4B        10.8231   16.3119   14.3258 H       1  RES11       0.0480
    331 C5          8.6845   15.3138   13.5025 C.2     1  RES11       0.2470
    332 C6          7.4892   14.5779   12.9556 C.ar    1  RES11       0.0375
    333 C7          7.3753   14.3725   11.6525 C.ar    1  RES11      -0.0419
    334 H7          8.0726   14.6571   11.0752 H       1  RES11       0.0631
    335 C8          6.1922   13.7179   11.0853 C.ar    1  RES11      -0.0172
    336 C9          6.0438   13.4943    9.7030 C.ar    1  RES11      -0.0540
    337 H9          6.7045   13.8115    9.0992 H       1  RES11       0.0624
    338 C10         5.0029   12.8540    9.2476 C.ar    1  RES11      -0.0612
    339 H10         4.9196   12.7340    8.3105 H       1  RES11       0.0618
    340 C11         4.0617   12.3681   10.0282 C.ar    1  RES11      -0.0612
    341 H11         3.3543   11.8538    9.6542 H       1  RES11       0.0618
    342 C12         4.0963   12.5938   11.3578 C.ar    1  RES11      -0.0540
    343 H12         3.3970   12.2766   11.9168 H       1  RES11       0.0624
    344 C13         5.1981   13.3175   11.9249 C.ar    1  RES11      -0.0178
    345 C14         5.3180   13.5431   13.2951 C.ar    1  RES11      -0.0533
    346 H14         4.6248   13.2687   13.8846 H       1  RES11       0.0624
    347 C15         6.4483   14.1652   13.7972 C.ar    1  RES11      -0.0490
    348 H15         6.5195   14.3176   14.7324 H       1  RES11       0.0625
@<TRIPOS>BOND
     1     1     6    1
     2     1     9    1
     3     1    12   am
     4     2    12    2
     5     3     4    1
     6     3     5   ar
     7     3    92   ar
     8     5     6    1
     9     5    61   ar
    10     6     7    1
    11     6     8    1
    12     9    10    1
    13     9    11    1
    14     9    38    1
    15    12    13    1
    16    13    14   ar
    17    13    28   ar
    18    14    15    1
    19    14    16   ar
    20    16    17   ar
    21    16    25   ar
    22    17    18    1
    23    17    19   ar
    24    19    20    1
    25    19    21   ar
    26    21    22    1
    27    21    23   ar
    28    23    24    1
    29    23    25   ar
    30    25    26   ar
    31    26    27    1
    32    26    28   ar
    33    28    29    1
    34    30    35    1
    35    30    38    1
    36    30    41   am
    37    31    41    2
    38    32    33    1
    39    32    34   ar
    40    32   179   ar
    41    34    35    1
    42    34   148   ar
    43    35    36    1
    44    35    37    1
    45    38    39    1
    46    38    40    1
    47    41    42    1
    48    42    43   ar
    49    42    57   ar
    50    43    44    1
    51    43    45   ar
    52    45    46   ar
    53    45    54   ar
    54    46    47    1
    55    46    48   ar
    56    48    49    1
    57    48    50   ar
    58    50    51    1
    59    50    52   ar
    60    52    53    1
    61    52    54   ar
    62    54    55   ar
    63    55    56    1
    64    55    57   ar
    65    57    58    1
    66    59    64    1
    67    59    67    1
    68    59    70   am
    69    60    70    2
    70    61    62    1
    71    61    63   ar
    72    63    64    1
    73    63    90   ar
    74    64    65    1
    75    64    66    1
    76    67    68    1
    77    67    69    1
    78    67   125    1
    79    70    71    1
    80    71    72   ar
    81    71    86   ar
    82    72    73    1
    83    72    74   ar
    84    74    75   ar
    85    74    83   ar
    86    75    76    1
    87    75    77   ar
    88    77    78    1
    89    77    79   ar
    90    79    80    1
    91    79    81   ar
    92    81    82    1
    93    81    83   ar
    94    83    84   ar
    95    84    85    1
    96    84    86   ar
    97    86    87    1
    98    88    93    1
    99    88    96    1
   100    88    99   am
   101    89    99    2
   102    90    91    1
   103    90    92   ar
   104    92    93    1
   105    93    94    1
   106    93    95    1
   107    96    97    1
   108    96    98    1
   109    96   241    1
   110    99   100    1
   111   100   101   ar
   112   100   115   ar
   113   101   102    1
   114   101   103   ar
   115   103   104   ar
   116   103   112   ar
   117   104   105    1
   118   104   106   ar
   119   106   107    1
   120   106   108   ar
   121   108   109    1
   122   108   110   ar
   123   110   111    1
   124   110   112   ar
   125   112   113   ar
   126   113   114    1
   127   113   115   ar
   128   115   116    1
   129   117   122    1
   130   117   125    1
   131   117   128   am
   132   118   128    2
   133   119   120    1
   134   119   121   ar
   135   119   295   ar
   136   121   122    1
   137   121   206   ar
   138   122   123    1
   139   122   124    1
   140   125   126    1
   141   125   127    1
   142   128   129    1
   143   129   130   ar
   144   129   144   ar
   145   130   131    1
   146   130   132   ar
   147   132   133   ar
   148   132   141   ar
   149   133   134    1
   150   133   135   ar
   151   135   136    1
   152   135   137   ar
   153   137   138    1
   154   137   139   ar
   155   139   140    1
   156   139   141   ar
   157   141   142   ar
   158   142   143    1
   159   142   144   ar
   160   144   145    1
   161   146   151    1
   162   146   154    1
   163   146   157   am
   164   147   157    2
   165   148   149    1
   166   148   150   ar
   167   150   151    1
   168   150   177   ar
   169   151   152    1
   170   151   153    1
   171   154   155    1
   172   154   156    1
   173   154   328    1
   174   157   158    1
   175   158   159   ar
   176   158   173   ar
   177   159   160    1
   178   159   161   ar
   179   161   162   ar
   180   161   170   ar
   181   162   163    1
   182   162   164   ar
   183   164   165    1
   184   164   166   ar
   185   166   167    1
   186   166   168   ar
   187   168   169    1
   188   168   170   ar
   189   170   171   ar
   190   171   172    1
   191   171   173   ar
   192   173   174    1
   193   175   180    1
   194   175   183    1
   195   175   186   am
   196   176   186    2
   197   177   178    1
   198   177   179   ar
   199   179   180    1
   200   180   181    1
   201   180   182    1
   202   183   184    1
   203   183   185    1
   204   183   212    1
   205   186   187    1
   206   187   188   ar
   207   187   202   ar
   208   188   189    1
   209   188   190   ar
   210   190   191   ar
   211   190   199   ar
   212   191   192    1
   213   191   193   ar
   214   193   194    1
   215   193   195   ar
   216   195   196    1
   217   195   197   ar
   218   197   198    1
   219   197   199   ar
   220   199   200   ar
   221   200   201    1
   222   200   202   ar
   223   202   203    1
   224   204   209    1
   225   204   212    1
   226   204   215   am
   227   205   215    2
   228   206   207    1
   229   206   208   ar
   230   208   209    1
   231   208   293   ar
   232   209   210    1
   233   209   211    1
   234   212   213    1
   235   212   214    1
   236   215   216    1
   237   216   217   ar
   238   216   231   ar
   239   217   218    1
   240   217   219   ar
   241   219   220   ar
   242   219   228   ar
   243   220   221    1
   244   220   222   ar
   245   222   223    1
   246   222   224   ar
   247   224   225    1
   248   224   226   ar
   249   226   227    1
   250   226   228   ar
   251   228   229   ar
   252   229   230    1
   253   229   231   ar
   254   231   232    1
   255   233   238    1
   256   233   241    1
   257   233   244   am
   258   234   244    2
   259   235   236    1
   260   235   237   ar
   261   235   324   ar
   262   237   238    1
   263   237   264   ar
   264   238   239    1
   265   238   240    1
   266   241   242    1
   267   241   243    1
   268   244   245    1
   269   245   246   ar
   270   245   260   ar
   271   246   247    1
   272   246   248   ar
   273   248   249   ar
   274   248   257   ar
   275   249   250    1
   276   249   251   ar
   277   251   252    1
   278   251   253   ar
   279   253   254    1
   280   253   255   ar
   281   255   256    1
   282   255   257   ar
   283   257   258   ar
   284   258   259    1
   285   258   260   ar
   286   260   261    1
   287   262   267    1
   288   262   270    1
   289   262   273   am
   290   263   273    2
   291   264   265    1
   292   264   266   ar
   293   266   267    1
   294   266   322   ar
   295   267   268    1
   296   267   269    1
   297   270   271    1
   298   270   272    1
   299   270   299    1
   300   273   274    1
   301   274   275   ar
   302   274   289   ar
   303   275   276    1
   304   275   277   ar
   305   277   278   ar
   306   277   286   ar
   307   278   279    1
   308   278   280   ar
   309   280   281    1
   310   280   282   ar
   311   282   283    1
   312   282   284   ar
   313   284   285    1
   314   284   286   ar
   315   286   287   ar
   316   287   288    1
   317   287   289   ar
   318   289   290    1
   319   291   296    1
   320   291   299    1
   321   291   302   am
   322   292   302    2
   323   293   294    1
   324   293   295   ar
   325   295   296    1
   326   296   297    1
   327   296   298    1
   328   299   300    1
   329   299   301    1
   330   302   303    1
   331   303   304   ar
   332   303   318   ar
   333   304   305    1
   334   304   306   ar
   335   306   307   ar
   336   306   315   ar
   337   307   308    1
   338   307   309   ar
   339   309   310    1
   340   309   311   ar
   341   311   312    1
   342   311   313   ar
   343   313   314    1
   344   313   315   ar
   345   315   316   ar
   346   316   317    1
   347   316   318   ar
   348   318   319    1
   349   320   325    1
   350   320   328    1
   351   320   331   am
   352   321   331    2
   353   322   323    1
   354   322   324   ar
   355   324   325    1
   356   325   326    1
   357   325   327    1
   358   328   329    1
   359   328   330    1
   360   331   332    1
   361   332   333   ar
   362   332   347   ar
   363   333   334    1
   364   333   335   ar
   365   335   336   ar
   366   335   344   ar
   367   336   337    1
   368   336   338   ar
   369   338   339    1
   370   338   340   ar
   371   340   341    1
   372   340   342   ar
   373   342   343    1
   374   342   344   ar
   375   344   345   ar
   376   345   346    1
   377   345   347   ar
   378   347   348    1
