@<TRIPOS>MOLECULE
*****
 264 270 0 0 0
SMALL
GASTEIGER

@<TRIPOS>ATOM
      1 N1         10.7247    4.8583   11.5656 N.am    1  RES11      -0.2945
      2 O1          8.6749    3.9953   11.8209 O.2     1  RES11      -0.2741
      3 Br1        11.6337    1.6333   11.5959 Br      1  RES11      -0.0751
      4 C1         12.0122    6.5233   13.5724 C.ar    1  RES11      -0.0524
      5 H1         11.2446    6.0523   13.8773 H       1  RES11       0.0624
      6 C2         12.6907    6.0746   12.4404 C.ar    1  RES11      -0.0295
      7 C3         12.1863    4.8762   11.6491 C.3     1  RES11       0.0398
      8 H3A        12.5660    4.9057   10.7363 H       1  RES11       0.0514
      9 H3B        12.4989    4.0437   12.0842 H       1  RES11       0.0514
     10 C4         10.1061    6.0277   10.9234 C.3     1  RES11       0.0309
     11 H4A        10.5330    6.8492   11.2771 H       1  RES11       0.0480
     12 H4B         9.1485    6.0563   11.1694 H       1  RES11       0.0480
     13 C5          9.8886    3.8810   11.9974 C.2     1  RES11       0.2320
     14 C6         10.3948    2.6429   12.7226 C.3     1  RES11       0.0965
     15 C7          9.1973    1.7748   13.1190 C.3     1  RES11      -0.0417
     16 H7A         8.6647    1.5715   12.3221 H       1  RES11       0.0248
     17 H7B         8.6423    2.2587   13.7675 H       1  RES11       0.0248
     18 H7C         9.5165    0.9413   13.5195 H       1  RES11       0.0248
     19 C9         11.2121    2.8239   14.0928 C.3     1  RES11      -0.0417
     20 H9A        11.4804    1.9456   14.4323 H       1  RES11       0.0248
     21 H9B        10.6428    3.2691   14.7556 H       1  RES11       0.0248
     22 H9C        12.0090    3.3707   13.9282 H       1  RES11       0.0248
     23 N1          9.6054    4.8583    8.7645 N.am    1  RES11      -0.2945
     24 O1         11.6552    3.9953    8.5092 O.2     1  RES11      -0.2741
     25 Br1         8.6964    1.6333    8.7342 Br      1  RES11      -0.0751
     26 C1          8.3179    6.5233    6.7577 C.ar    1  RES11      -0.0524
     27 H1          9.0855    6.0523    6.4528 H       1  RES11       0.0624
     28 C2          7.6394    6.0746    7.8897 C.ar    1  RES11      -0.0295
     29 C3          8.1438    4.8762    8.6810 C.3     1  RES11       0.0398
     30 H3A         7.7641    4.9057    9.5938 H       1  RES11       0.0514
     31 H3B         7.8312    4.0437    8.2459 H       1  RES11       0.0514
     32 C4         10.2240    6.0277    9.4067 C.3     1  RES11       0.0309
     33 H4A         9.7971    6.8492    9.0530 H       1  RES11       0.0480
     34 H4B        11.1816    6.0563    9.1607 H       1  RES11       0.0480
     35 C5         10.4415    3.8810    8.3327 C.2     1  RES11       0.2320
     36 C6          9.9353    2.6429    7.6075 C.3     1  RES11       0.0965
     37 C7         11.1328    1.7748    7.2111 C.3     1  RES11      -0.0417
     38 H7A        11.6654    1.5715    8.0080 H       1  RES11       0.0248
     39 H7B        11.6878    2.2587    6.5626 H       1  RES11       0.0248
     40 H7C        10.8136    0.9413    6.8106 H       1  RES11       0.0248
     41 C9          9.1180    2.8239    6.2373 C.3     1  RES11      -0.0417
     42 H9A         8.8497    1.9456    5.8978 H       1  RES11       0.0248
     43 H9B         9.6873    3.2691    5.5745 H       1  RES11       0.0248
     44 H9C         8.3211    3.3707    6.4019 H       1  RES11       0.0248
     45 N1         11.5656    9.6054   15.4718 N.am    1  RES11      -0.2945
     46 O1         11.8209   11.6552   16.3348 O.2     1  RES11      -0.2741
     47 Br1        11.5959    8.6964   18.6968 Br      1  RES11      -0.0751
     48 C1         13.5724    8.3179   13.8068 C.ar    1  RES11      -0.0524
     49 H1         13.8773    9.0855   14.2778 H       1  RES11       0.0624
     50 C2         12.4404    7.6394   14.2555 C.ar    1  RES11      -0.0295
     51 C3         11.6491    8.1438   15.4539 C.3     1  RES11       0.0398
     52 H3A        10.7363    7.7641   15.4244 H       1  RES11       0.0514
     53 H3B        12.0842    7.8312   16.2864 H       1  RES11       0.0514
     54 C4         10.9234   10.2240   14.3024 C.3     1  RES11       0.0309
     55 H4A        11.2771    9.7971   13.4809 H       1  RES11       0.0480
     56 H4B        11.1694   11.1816   14.2738 H       1  RES11       0.0480
     57 C5         11.9974   10.4415   16.4491 C.2     1  RES11       0.2320
     58 C6         12.7226    9.9353   17.6872 C.3     1  RES11       0.0965
     59 C7         13.1190   11.1328   18.5553 C.3     1  RES11      -0.0417
     60 H7A        12.3221   11.6654   18.7586 H       1  RES11       0.0248
     61 H7B        13.7675   11.6878   18.0714 H       1  RES11       0.0248
     62 H7C        13.5195   10.8136   19.3888 H       1  RES11       0.0248
     63 C9         14.0928    9.1180   17.5062 C.3     1  RES11      -0.0417
     64 H9A        14.4323    8.8497   18.3845 H       1  RES11       0.0248
     65 H9B        14.7556    9.6873   17.0610 H       1  RES11       0.0248
     66 H9C        13.9282    8.3211   16.9594 H       1  RES11       0.0248
     67 N1          8.7645   10.7247   15.4718 N.am    1  RES11      -0.2945
     68 O1          8.5092    8.6749   16.3348 O.2     1  RES11      -0.2741
     69 Br1         8.7342   11.6337   18.6968 Br      1  RES11      -0.0751
     70 C1          6.7577   12.0122   13.8068 C.ar    1  RES11      -0.0524
     71 H1          6.4528   11.2446   14.2778 H       1  RES11       0.0624
     72 C2          7.8897   12.6907   14.2555 C.ar    1  RES11      -0.0295
     73 C3          8.6810   12.1863   15.4539 C.3     1  RES11       0.0398
     74 H3A         9.5938   12.5660   15.4244 H       1  RES11       0.0514
     75 H3B         8.2459   12.4989   16.2864 H       1  RES11       0.0514
     76 C4          9.4067   10.1061   14.3024 C.3     1  RES11       0.0309
     77 H4A         9.0530   10.5330   13.4809 H       1  RES11       0.0480
     78 H4B         9.1607    9.1485   14.2738 H       1  RES11       0.0480
     79 C5          8.3327    9.8886   16.4491 C.2     1  RES11       0.2320
     80 C6          7.6075   10.3948   17.6872 C.3     1  RES11       0.0965
     81 C7          7.2111    9.1973   18.5553 C.3     1  RES11      -0.0417
     82 H7A         8.0080    8.6647   18.7586 H       1  RES11       0.0248
     83 H7B         6.5626    8.6423   18.0714 H       1  RES11       0.0248
     84 H7C         6.8106    9.5165   19.3888 H       1  RES11       0.0248
     85 C9          6.2373   11.2121   17.5062 C.3     1  RES11      -0.0417
     86 H9A         5.8978   11.4804   18.3845 H       1  RES11       0.0248
     87 H9B         5.5745   10.6428   17.0610 H       1  RES11       0.0248
     88 H9C         6.4019   12.0090   16.9594 H       1  RES11       0.0248
     89 N1          4.8583    8.7645    9.6054 N.am    1  RES11      -0.2945
     90 O1          3.9953    8.5092   11.6552 O.2     1  RES11      -0.2741
     91 Br1         1.6333    8.7342    8.6964 Br      1  RES11      -0.0751
     92 C1          6.5233    6.7577    8.3179 C.ar    1  RES11      -0.0524
     93 H1          6.0523    6.4528    9.0855 H       1  RES11       0.0624
     94 C2          6.0746    7.8897    7.6394 C.ar    1  RES11      -0.0295
     95 C3          4.8762    8.6810    8.1438 C.3     1  RES11       0.0398
     96 H3A         4.9057    9.5938    7.7641 H       1  RES11       0.0514
     97 H3B         4.0437    8.2459    7.8312 H       1  RES11       0.0514
     98 C4          6.0277    9.4067   10.2240 C.3     1  RES11       0.0309
     99 H4A         6.8492    9.0530    9.7971 H       1  RES11       0.0480
    100 H4B         6.0563    9.1607   11.1816 H       1  RES11       0.0480
    101 C5          3.8810    8.3327   10.4415 C.2     1  RES11       0.2320
    102 C6          2.6429    7.6075    9.9353 C.3     1  RES11       0.0965
    103 C7          1.7748    7.2111   11.1328 C.3     1  RES11      -0.0417
    104 H7A         1.5715    8.0080   11.6654 H       1  RES11       0.0248
    105 H7B         2.2587    6.5626   11.6878 H       1  RES11       0.0248
    106 H7C         0.9413    6.8106   10.8136 H       1  RES11       0.0248
    107 C9          2.8239    6.2373    9.1180 C.3     1  RES11      -0.0417
    108 H9A         1.9456    5.8978    8.8497 H       1  RES11       0.0248
    109 H9B         3.2691    5.5745    9.6873 H       1  RES11       0.0248
    110 H9C         3.3707    6.4019    8.3211 H       1  RES11       0.0248
    111 N1         15.4718    8.7645   10.7247 N.am    1  RES11      -0.2945
    112 O1         16.3348    8.5092    8.6749 O.2     1  RES11      -0.2741
    113 Br1        18.6968    8.7342   11.6337 Br      1  RES11      -0.0751
    114 C1         13.8068    6.7577   12.0122 C.ar    1  RES11      -0.0524
    115 H1         14.2778    6.4528   11.2446 H       1  RES11       0.0624
    116 C2         14.2555    7.8897   12.6907 C.ar    1  RES11      -0.0295
    117 C3         15.4539    8.6810   12.1863 C.3     1  RES11       0.0398
    118 H3A        15.4244    9.5938   12.5660 H       1  RES11       0.0514
    119 H3B        16.2864    8.2459   12.4989 H       1  RES11       0.0514
    120 C4         14.3024    9.4067   10.1061 C.3     1  RES11       0.0309
    121 H4A        13.4809    9.0530   10.5330 H       1  RES11       0.0480
    122 H4B        14.2738    9.1607    9.1485 H       1  RES11       0.0480
    123 C5         16.4491    8.3327    9.8886 C.2     1  RES11       0.2320
    124 C6         17.6872    7.6075   10.3948 C.3     1  RES11       0.0965
    125 C7         18.5553    7.2111    9.1973 C.3     1  RES11      -0.0417
    126 H7A        18.7586    8.0080    8.6647 H       1  RES11       0.0248
    127 H7B        18.0714    6.5626    8.6423 H       1  RES11       0.0248
    128 H7C        19.3888    6.8106    9.5165 H       1  RES11       0.0248
    129 C9         17.5062    6.2373   11.2121 C.3     1  RES11      -0.0417
    130 H9A        18.3845    5.8978   11.4804 H       1  RES11       0.0248
    131 H9B        17.0610    5.5745   10.6428 H       1  RES11       0.0248
    132 H9C        16.9594    6.4019   12.0090 H       1  RES11       0.0248
    133 N1          9.6054   15.4718   11.5656 N.am    1  RES11      -0.2945
    134 O1         11.6552   16.3348   11.8209 O.2     1  RES11      -0.2741
    135 Br1         8.6964   18.6968   11.5959 Br      1  RES11      -0.0751
    136 C1          8.3179   13.8068   13.5724 C.ar    1  RES11      -0.0524
    137 H1          9.0855   14.2778   13.8773 H       1  RES11       0.0624
    138 C2          7.6394   14.2555   12.4404 C.ar    1  RES11      -0.0295
    139 C3          8.1438   15.4539   11.6491 C.3     1  RES11       0.0398
    140 H3A         7.7641   15.4244   10.7363 H       1  RES11       0.0514
    141 H3B         7.8312   16.2864   12.0842 H       1  RES11       0.0514
    142 C4         10.2240   14.3024   10.9234 C.3     1  RES11       0.0309
    143 H4A         9.7971   13.4809   11.2771 H       1  RES11       0.0480
    144 H4B        11.1816   14.2738   11.1694 H       1  RES11       0.0480
    145 C5         10.4415   16.4491   11.9974 C.2     1  RES11       0.2320
    146 C6          9.9353   17.6872   12.7226 C.3     1  RES11       0.0965
    147 C7         11.1328   18.5553   13.1190 C.3     1  RES11      -0.0417
    148 H7A        11.6654   18.7586   12.3221 H       1  RES11       0.0248
    149 H7B        11.6878   18.0714   13.7675 H       1  RES11       0.0248
    150 H7C        10.8136   19.3888   13.5195 H       1  RES11       0.0248
    151 C9          9.1180   17.5062   14.0928 C.3     1  RES11      -0.0417
    152 H9A         8.8497   18.3845   14.4323 H       1  RES11       0.0248
    153 H9B         9.6873   17.0610   14.7556 H       1  RES11       0.0248
    154 H9C         8.3211   16.9594   13.9282 H       1  RES11       0.0248
    155 N1         10.7247   15.4718    8.7645 N.am    1  RES11      -0.2945
    156 O1          8.6749   16.3348    8.5092 O.2     1  RES11      -0.2741
    157 Br1        11.6337   18.6968    8.7342 Br      1  RES11      -0.0751
    158 C1         12.0122   13.8068    6.7577 C.ar    1  RES11      -0.0524
    159 H1         11.2446   14.2778    6.4528 H       1  RES11       0.0624
    160 C2         12.6907   14.2555    7.8897 C.ar    1  RES11      -0.0295
    161 C3         12.1863   15.4539    8.6810 C.3     1  RES11       0.0398
    162 H3A        12.5660   15.4244    9.5938 H       1  RES11       0.0514
    163 H3B        12.4989   16.2864    8.2459 H       1  RES11       0.0514
    164 C4         10.1061   14.3024    9.4067 C.3     1  RES11       0.0309
    165 H4A        10.5330   13.4809    9.0530 H       1  RES11       0.0480
    166 H4B         9.1485   14.2738    9.1607 H       1  RES11       0.0480
    167 C5          9.8886   16.4491    8.3327 C.2     1  RES11       0.2320
    168 C6         10.3948   17.6872    7.6075 C.3     1  RES11       0.0965
    169 C7          9.1973   18.5553    7.2111 C.3     1  RES11      -0.0417
    170 H7A         8.6647   18.7586    8.0080 H       1  RES11       0.0248
    171 H7B         8.6423   18.0714    6.5626 H       1  RES11       0.0248
    172 H7C         9.5165   19.3888    6.8106 H       1  RES11       0.0248
    173 C9         11.2121   17.5062    6.2373 C.3     1  RES11      -0.0417
    174 H9A        11.4804   18.3845    5.8978 H       1  RES11       0.0248
    175 H9B        10.6428   17.0610    5.5745 H       1  RES11       0.0248
    176 H9C        12.0090   16.9594    6.4019 H       1  RES11       0.0248
    177 N1         11.5656   10.7247    4.8583 N.am    1  RES11      -0.2945
    178 O1         11.8209    8.6749    3.9953 O.2     1  RES11      -0.2741
    179 Br1        11.5959   11.6337    1.6333 Br      1  RES11      -0.0751
    180 C1         13.5724   12.0122    6.5233 C.ar    1  RES11      -0.0524
    181 H1         13.8773   11.2446    6.0523 H       1  RES11       0.0624
    182 C2         12.4404   12.6907    6.0746 C.ar    1  RES11      -0.0295
    183 C3         11.6491   12.1863    4.8762 C.3     1  RES11       0.0398
    184 H3A        10.7363   12.5660    4.9057 H       1  RES11       0.0514
    185 H3B        12.0842   12.4989    4.0437 H       1  RES11       0.0514
    186 C4         10.9234   10.1061    6.0277 C.3     1  RES11       0.0309
    187 H4A        11.2771   10.5330    6.8492 H       1  RES11       0.0480
    188 H4B        11.1694    9.1485    6.0563 H       1  RES11       0.0480
    189 C5         11.9974    9.8886    3.8810 C.2     1  RES11       0.2320
    190 C6         12.7226   10.3948    2.6429 C.3     1  RES11       0.0965
    191 C7         13.1190    9.1973    1.7748 C.3     1  RES11      -0.0417
    192 H7A        12.3221    8.6647    1.5715 H       1  RES11       0.0248
    193 H7B        13.7675    8.6423    2.2587 H       1  RES11       0.0248
    194 H7C        13.5195    9.5165    0.9413 H       1  RES11       0.0248
    195 C9         14.0928   11.2121    2.8239 C.3     1  RES11      -0.0417
    196 H9A        14.4323   11.4804    1.9456 H       1  RES11       0.0248
    197 H9B        14.7556   10.6428    3.2691 H       1  RES11       0.0248
    198 H9C        13.9282   12.0090    3.3707 H       1  RES11       0.0248
    199 N1          8.7645    9.6054    4.8583 N.am    1  RES11      -0.2945
    200 O1          8.5092   11.6552    3.9953 O.2     1  RES11      -0.2741
    201 Br1         8.7342    8.6964    1.6333 Br      1  RES11      -0.0751
    202 C1          6.7577    8.3179    6.5233 C.ar    1  RES11      -0.0524
    203 H1          6.4528    9.0855    6.0523 H       1  RES11       0.0624
    204 C2          7.8897    7.6394    6.0746 C.ar    1  RES11      -0.0295
    205 C3          8.6810    8.1438    4.8762 C.3     1  RES11       0.0398
    206 H3A         9.5938    7.7641    4.9057 H       1  RES11       0.0514
    207 H3B         8.2459    7.8312    4.0437 H       1  RES11       0.0514
    208 C4          9.4067   10.2240    6.0277 C.3     1  RES11       0.0309
    209 H4A         9.0530    9.7971    6.8492 H       1  RES11       0.0480
    210 H4B         9.1607   11.1816    6.0563 H       1  RES11       0.0480
    211 C5          8.3327   10.4415    3.8810 C.2     1  RES11       0.2320
    212 C6          7.6075    9.9353    2.6429 C.3     1  RES11       0.0965
    213 C7          7.2111   11.1328    1.7748 C.3     1  RES11      -0.0417
    214 H7A         8.0080   11.6654    1.5715 H       1  RES11       0.0248
    215 H7B         6.5626   11.6878    2.2587 H       1  RES11       0.0248
    216 H7C         6.8106   10.8136    0.9413 H       1  RES11       0.0248
    217 C9          6.2373    9.1180    2.8239 C.3     1  RES11      -0.0417
    218 H9A         5.8978    8.8497    1.9456 H       1  RES11       0.0248
    219 H9B         5.5745    9.6873    3.2691 H       1  RES11       0.0248
    220 H9C         6.4019    8.3211    3.3707 H       1  RES11       0.0248
    221 N1          4.8583   11.5656   10.7247 N.am    1  RES11      -0.2945
    222 O1          3.9953   11.8209    8.6749 O.2     1  RES11      -0.2741
    223 Br1         1.6333   11.5959   11.6337 Br      1  RES11      -0.0751
    224 C1          6.5233   13.5724   12.0122 C.ar    1  RES11      -0.0524
    225 H1          6.0523   13.8773   11.2446 H       1  RES11       0.0624
    226 C2          6.0746   12.4404   12.6907 C.ar    1  RES11      -0.0295
    227 C3          4.8762   11.6491   12.1863 C.3     1  RES11       0.0398
    228 H3A         4.9057   10.7363   12.5660 H       1  RES11       0.0514
    229 H3B         4.0437   12.0842   12.4989 H       1  RES11       0.0514
    230 C4          6.0277   10.9234   10.1061 C.3     1  RES11       0.0309
    231 H4A         6.8492   11.2771   10.5330 H       1  RES11       0.0480
    232 H4B         6.0563   11.1694    9.1485 H       1  RES11       0.0480
    233 C5          3.8810   11.9974    9.8886 C.2     1  RES11       0.2320
    234 C6          2.6429   12.7226   10.3948 C.3     1  RES11       0.0965
    235 C7          1.7748   13.1190    9.1973 C.3     1  RES11      -0.0417
    236 H7A         1.5715   12.3221    8.6647 H       1  RES11       0.0248
    237 H7B         2.2587   13.7675    8.6423 H       1  RES11       0.0248
    238 H7C         0.9413   13.5195    9.5165 H       1  RES11       0.0248
    239 C9          2.8239   14.0928   11.2121 C.3     1  RES11      -0.0417
    240 H9A         1.9456   14.4323   11.4804 H       1  RES11       0.0248
    241 H9B         3.2691   14.7556   10.6428 H       1  RES11       0.0248
    242 H9C         3.3707   13.9282   12.0090 H       1  RES11       0.0248
    243 N1         15.4718   11.5656    9.6054 N.am    1  RES11      -0.2945
    244 O1         16.3348   11.8209   11.6552 O.2     1  RES11      -0.2741
    245 Br1        18.6968   11.5959    8.6964 Br      1  RES11      -0.0751
    246 C1         13.8068   13.5724    8.3179 C.ar    1  RES11      -0.0524
    247 H1         14.2778   13.8773    9.0855 H       1  RES11       0.0624
    248 C2         14.2555   12.4404    7.6394 C.ar    1  RES11      -0.0295
    249 C3         15.4539   11.6491    8.1438 C.3     1  RES11       0.0398
    250 H3A        15.4244   10.7363    7.7641 H       1  RES11       0.0514
    251 H3B        16.2864   12.0842    7.8312 H       1  RES11       0.0514
    252 C4         14.3024   10.9234   10.2240 C.3     1  RES11       0.0309
    253 H4A        13.4809   11.2771    9.7971 H       1  RES11       0.0480
    254 H4B        14.2738   11.1694   11.1816 H       1  RES11       0.0480
    255 C5         16.4491   11.9974   10.4415 C.2     1  RES11       0.2320
    256 C6         17.6872   12.7226    9.9353 C.3     1  RES11       0.0965
    257 C7         18.5553   13.1190   11.1328 C.3     1  RES11      -0.0417
    258 H7A        18.7586   12.3221   11.6654 H       1  RES11       0.0248
    259 H7B        18.0714   13.7675   11.6878 H       1  RES11       0.0248
    260 H7C        19.3888   13.5195   10.8136 H       1  RES11       0.0248
    261 C9         17.5062   14.0928    9.1180 C.3     1  RES11      -0.0417
    262 H9A        18.3845   14.4323    8.8497 H       1  RES11       0.0248
    263 H9B        17.0610   14.7556    9.6873 H       1  RES11       0.0248
    264 H9C        16.9594   13.9282    8.3211 H       1  RES11       0.0248
@<TRIPOS>BOND
     1     1     7    1
     2     1    10    1
     3     1    13   am
     4     2    13    2
     5     3    14    1
     6     4     5    1
     7     4     6   ar
     8     4    50   ar
     9     6     7    1
    10     6   114   ar
    11     7     8    1
    12     7     9    1
    13    10    11    1
    14    10    12    1
    15    10    32    1
    16    13    14    1
    17    14    15    1
    18    14    19    1
    19    15    16    1
    20    15    17    1
    21    15    18    1
    22    19    20    1
    23    19    21    1
    24    19    22    1
    25    23    29    1
    26    23    32    1
    27    23    35   am
    28    24    35    2
    29    25    36    1
    30    26    27    1
    31    26    28   ar
    32    26   204   ar
    33    28    29    1
    34    28    92   ar
    35    29    30    1
    36    29    31    1
    37    32    33    1
    38    32    34    1
    39    35    36    1
    40    36    37    1
    41    36    41    1
    42    37    38    1
    43    37    39    1
    44    37    40    1
    45    41    42    1
    46    41    43    1
    47    41    44    1
    48    45    51    1
    49    45    54    1
    50    45    57   am
    51    46    57    2
    52    47    58    1
    53    48    49    1
    54    48    50   ar
    55    48   116   ar
    56    50    51    1
    57    51    52    1
    58    51    53    1
    59    54    55    1
    60    54    56    1
    61    54    76    1
    62    57    58    1
    63    58    59    1
    64    58    63    1
    65    59    60    1
    66    59    61    1
    67    59    62    1
    68    63    64    1
    69    63    65    1
    70    63    66    1
    71    67    73    1
    72    67    76    1
    73    67    79   am
    74    68    79    2
    75    69    80    1
    76    70    71    1
    77    70    72   ar
    78    70   226   ar
    79    72    73    1
    80    72   136   ar
    81    73    74    1
    82    73    75    1
    83    76    77    1
    84    76    78    1
    85    79    80    1
    86    80    81    1
    87    80    85    1
    88    81    82    1
    89    81    83    1
    90    81    84    1
    91    85    86    1
    92    85    87    1
    93    85    88    1
    94    89    95    1
    95    89    98    1
    96    89   101   am
    97    90   101    2
    98    91   102    1
    99    92    93    1
   100    92    94   ar
   101    94    95    1
   102    94   202   ar
   103    95    96    1
   104    95    97    1
   105    98    99    1
   106    98   100    1
   107    98   230    1
   108   101   102    1
   109   102   103    1
   110   102   107    1
   111   103   104    1
   112   103   105    1
   113   103   106    1
   114   107   108    1
   115   107   109    1
   116   107   110    1
   117   111   117    1
   118   111   120    1
   119   111   123   am
   120   112   123    2
   121   113   124    1
   122   114   115    1
   123   114   116   ar
   124   116   117    1
   125   117   118    1
   126   117   119    1
   127   120   121    1
   128   120   122    1
   129   120   252    1
   130   123   124    1
   131   124   125    1
   132   124   129    1
   133   125   126    1
   134   125   127    1
   135   125   128    1
   136   129   130    1
   137   129   131    1
   138   129   132    1
   139   133   139    1
   140   133   142    1
   141   133   145   am
   142   134   145    2
   143   135   146    1
   144   136   137    1
   145   136   138   ar
   146   138   139    1
   147   138   224   ar
   148   139   140    1
   149   139   141    1
   150   142   143    1
   151   142   144    1
   152   142   164    1
   153   145   146    1
   154   146   147    1
   155   146   151    1
   156   147   148    1
   157   147   149    1
   158   147   150    1
   159   151   152    1
   160   151   153    1
   161   151   154    1
   162   155   161    1
   163   155   164    1
   164   155   167   am
   165   156   167    2
   166   157   168    1
   167   158   159    1
   168   158   160   ar
   169   158   182   ar
   170   160   161    1
   171   160   246   ar
   172   161   162    1
   173   161   163    1
   174   164   165    1
   175   164   166    1
   176   167   168    1
   177   168   169    1
   178   168   173    1
   179   169   170    1
   180   169   171    1
   181   169   172    1
   182   173   174    1
   183   173   175    1
   184   173   176    1
   185   177   183    1
   186   177   186    1
   187   177   189   am
   188   178   189    2
   189   179   190    1
   190   180   181    1
   191   180   182   ar
   192   180   248   ar
   193   182   183    1
   194   183   184    1
   195   183   185    1
   196   186   187    1
   197   186   188    1
   198   186   208    1
   199   189   190    1
   200   190   191    1
   201   190   195    1
   202   191   192    1
   203   191   193    1
   204   191   194    1
   205   195   196    1
   206   195   197    1
   207   195   198    1
   208   199   205    1
   209   199   208    1
   210   199   211   am
   211   200   211    2
   212   201   212    1
   213   202   203    1
   214   202   204   ar
   215   204   205    1
   216   205   206    1
   217   205   207    1
   218   208   209    1
   219   208   210    1
   220   211   212    1
   221   212   213    1
   222   212   217    1
   223   213   214    1
   224   213   215    1
   225   213   216    1
   226   217   218    1
   227   217   219    1
   228   217   220    1
   229   221   227    1
   230   221   230    1
   231   221   233   am
   232   222   233    2
   233   223   234    1
   234   224   225    1
   235   224   226   ar
   236   226   227    1
   237   227   228    1
   238   227   229    1
   239   230   231    1
   240   230   232    1
   241   233   234    1
   242   234   235    1
   243   234   239    1
   244   235   236    1
   245   235   237    1
   246   235   238    1
   247   239   240    1
   248   239   241    1
   249   239   242    1
   250   243   249    1
   251   243   252    1
   252   243   255   am
   253   244   255    2
   254   245   256    1
   255   246   247    1
   256   246   248   ar
   257   248   249    1
   258   249   250    1
   259   249   251    1
   260   252   253    1
   261   252   254    1
   262   255   256    1
   263   256   257    1
   264   256   261    1
   265   257   258    1
   266   257   259    1
   267   257   260    1
   268   261   262    1
   269   261   263    1
   270   261   264    1
