@<TRIPOS>MOLECULE
*****
 444 486 0 0 0
SMALL
GASTEIGER

@<TRIPOS>ATOM
      1 O1         23.1999    8.0865   22.2685 O.2     1  RES11      -0.2750
      2 O2         27.1839    7.7701   22.3724 O.2     1  RES11      -0.2750
      3 O3         20.9836    3.4169   14.0415 O.2     1  RES11      -0.2750
      4 O4         19.1570    5.2930   17.4845 O.2     1  RES11      -0.2750
      5 O5         25.1116    6.6797    9.7205 O.2     1  RES11      -0.2750
      6 O6         25.4611   10.5974   10.0762 O.2     1  RES11      -0.2750
      7 O7         29.3745   13.4468   14.5676 O.2     1  RES11      -0.2750
      8 O8         31.0853   11.0782   17.5904 O.2     1  RES11      -0.2750
      9 O9         22.1196   14.0244   14.6294 O.2     1  RES11      -0.2750
     10 O10        20.0807   12.2901   18.1698 O.2     1  RES11      -0.2750
     11 O11        27.6637    2.4112   14.4350 O.2     1  RES11      -0.2750
     12 O12        30.1883    3.9338   17.5947 O.2     1  RES11      -0.2750
     13 N1         24.6784    9.4009   21.2343 N.am    1  RES11      -0.2952
     14 N2         25.7440    6.4655   21.2210 N.am    1  RES11      -0.2952
     15 N3         21.7409    3.7209   16.1168 N.am    1  RES11      -0.2952
     16 N4         19.9853    6.1611   15.5864 N.am    1  RES11      -0.2952
     17 N5         23.8170    8.0611   10.9499 N.am    1  RES11      -0.2952
     18 N6         26.7651    9.0524   11.0186 N.am    1  RES11      -0.2952
     19 N7         29.8030   11.2623   14.5448 N.am    1  RES11      -0.2952
     20 N8         29.0722   12.0056   17.4377 N.am    1  RES11      -0.2952
     21 N9         22.8829   13.2644   16.6356 N.am    1  RES11      -0.2952
     22 N10        20.4222   11.4632   16.0885 N.am    1  RES11      -0.2952
     23 N11        28.7240    4.3406   14.6641 N.am    1  RES11      -0.2952
     24 N12        27.9831    3.5946   17.5578 N.am    1  RES11      -0.2952
     25 C1         24.4517   12.7655   18.5406 C.ar    1  RES11      -0.0295
     26 C2         24.4598   11.8650   19.5598 C.ar    1  RES11      -0.0524
     27 H2         23.6462   11.5871   19.9636 H       1  RES11       0.0624
     28 C3         25.6951   11.3494   20.0108 C.ar    1  RES11      -0.0295
     29 C4         26.8746   11.7779   19.4053 C.ar    1  RES11      -0.0524
     30 H4         27.7106   11.4733   19.7361 H       1  RES11       0.0624
     31 C5         26.8368   12.6520   18.3161 C.ar    1  RES11      -0.0295
     32 C6         25.6215   13.1372   17.8904 C.ar    1  RES11      -0.0524
     33 H6         25.5813   13.7264   17.1484 H       1  RES11       0.0624
     34 C7         23.0938   13.4184   18.0947 C.3     1  RES11       0.0398
     35 H7A        22.3472   12.9899   18.5818 H       1  RES11       0.0514
     36 H7B        23.1005   14.3792   18.3286 H       1  RES11       0.0514
     37 C8         25.7581   10.4086   21.2060 C.3     1  RES11       0.0398
     38 H8A        26.6292    9.9399   21.1952 H       1  RES11       0.0514
     39 H8B        25.7152   10.9476   22.0363 H       1  RES11       0.0514
     40 C9         28.1224   13.0501   17.6462 C.3     1  RES11       0.0398
     41 H9A        27.9047   13.4485   16.7665 H       1  RES11       0.0514
     42 H9B        28.5509   13.7565   18.1912 H       1  RES11       0.0514
     43 C10        20.5494    7.7403   13.7681 C.ar    1  RES11      -0.0295
     44 C11        20.1748    8.9021   14.4204 C.ar    1  RES11      -0.0524
     45 H11        19.5785    8.8485   15.1572 H       1  RES11       0.0624
     46 C12        20.6498   10.1240   14.0204 C.ar    1  RES11      -0.0295
     47 C13        21.5337   10.1836   12.9420 C.ar    1  RES11      -0.0524
     48 H13        21.8584   11.0280   12.6553 H       1  RES11       0.0624
     49 C14        21.9522    9.0259   12.2743 C.ar    1  RES11      -0.0295
     50 C15        21.4466    7.7973   12.7103 C.ar    1  RES11      -0.0524
     51 H15        21.7178    6.9971   12.2777 H       1  RES11       0.0624
     52 C16        19.9501    6.4012   14.1651 C.3     1  RES11       0.0398
     53 H16A       19.0094    6.3644   13.8569 H       1  RES11       0.0514
     54 H16B       20.4456    5.6780   13.7067 H       1  RES11       0.0514
     55 C17        20.2213   11.4297   14.6847 C.3     1  RES11       0.0398
     56 H17A       20.7268   12.1763   14.2732 H       1  RES11       0.0514
     57 H17B       19.2605   11.5837   14.5006 H       1  RES11       0.0514
     58 C18        22.8595    9.1565   11.0847 C.3     1  RES11       0.0398
     59 H18A       22.3071    9.1967   10.2650 H       1  RES11       0.0514
     60 H18B       23.3583   10.0069   11.1533 H       1  RES11       0.0514
     61 C19        25.5713    3.3948   18.1668 C.ar    1  RES11      -0.0295
     62 C20        25.7085    4.1614   19.3049 C.ar    1  RES11      -0.0524
     63 H20        26.5622    4.3121   19.6889 H       1  RES11       0.0624
     64 C21        24.5502    4.7239   19.8915 C.ar    1  RES11      -0.0295
     65 C22        23.3215    4.4728   19.2950 C.ar    1  RES11      -0.0524
     66 H22        22.5381    4.8478   19.6804 H       1  RES11       0.0624
     67 C23        23.2043    3.7148   18.1844 C.ar    1  RES11      -0.0295
     68 C24        24.3225    3.1671   17.5960 C.ar    1  RES11      -0.0524
     69 H24        24.2455    2.6415   16.8094 H       1  RES11       0.0624
     70 C25        26.8033    2.7486   17.5115 C.3     1  RES11       0.0398
     71 H25A       27.0008    1.8949   17.9724 H       1  RES11       0.0514
     72 H25B       26.5924    2.5377   16.5648 H       1  RES11       0.0514
     73 C26        24.6205    5.5341   21.1922 C.3     1  RES11       0.0398
     74 H26A       23.7768    6.0396   21.3025 H       1  RES11       0.0514
     75 H26B       24.7008    4.9080   21.9591 H       1  RES11       0.0514
     76 C27        21.8049    3.4349   17.5390 C.3     1  RES11       0.0398
     77 H27A       21.5739    2.4841   17.6849 H       1  RES11       0.0514
     78 H27B       21.1252    3.9840   18.0067 H       1  RES11       0.0514
     79 C28        29.9737    8.9255   13.8951 C.ar    1  RES11      -0.0295
     80 C29        30.1880    7.7102   14.5105 C.ar    1  RES11      -0.0524
     81 H29        30.7069    7.6633   15.3031 H       1  RES11       0.0624
     82 C30        29.6356    6.5485   13.9539 C.ar    1  RES11      -0.0295
     83 C31        28.8321    6.6456   12.8098 C.ar    1  RES11      -0.0524
     84 H31        28.4538    5.8622   12.4236 H       1  RES11       0.0624
     85 C32        28.5877    7.8877   12.2412 C.ar    1  RES11      -0.0295
     86 C33        29.1870    9.0226   12.7781 C.ar    1  RES11      -0.0524
     87 H33        29.0531    9.8663   12.3678 H       1  RES11       0.0624
     88 C34        30.6232   10.1408   14.5268 C.3     1  RES11       0.0398
     89 H34A       30.8844    9.9198   15.4576 H       1  RES11       0.0514
     90 H34B       31.4502   10.3584   14.0286 H       1  RES11       0.0514
     91 C35        29.9101    5.2127   14.6122 C.3     1  RES11       0.0398
     92 H35A       30.6299    4.7473   14.1144 H       1  RES11       0.0514
     93 H35B       30.2349    5.3700   15.5349 H       1  RES11       0.0514
     94 C36        27.7541    7.9513   10.9808 C.3     1  RES11       0.0398
     95 H36A       28.3534    8.0785   10.2007 H       1  RES11       0.0514
     96 H36B       27.2787    7.0909   10.8615 H       1  RES11       0.0514
     97 C37        24.6874    8.4769   20.0923 C.3     1  RES11       0.0308
     98 H37A       24.7778    9.0059   19.2598 H       1  RES11       0.0480
     99 H37B       23.8136    8.0149   20.0537 H       1  RES11       0.0480
    100 C38        25.7956    7.4256   20.1271 C.3     1  RES11       0.0308
    101 H38A       25.7755    6.9268   19.2727 H       1  RES11       0.0480
    102 H38B       26.6660    7.8977   20.1696 H       1  RES11       0.0480
    103 C39        22.2234    5.0620   15.7323 C.3     1  RES11       0.0308
    104 H39A       22.2970    5.1022   14.7453 H       1  RES11       0.0480
    105 H39B       23.1306    5.1926   16.1056 H       1  RES11       0.0480
    106 C40        21.3261    6.1970   16.2052 C.3     1  RES11       0.0308
    107 H40A       21.2290    6.1434   17.1871 H       1  RES11       0.0480
    108 H40B       21.7580    7.0607   15.9898 H       1  RES11       0.0480
    109 C41        24.7745    7.9245   12.0636 C.3     1  RES11       0.0308
    110 H41A       25.2331    7.0507   11.9773 H       1  RES11       0.0480
    111 H41B       24.2656    7.9111   12.9128 H       1  RES11       0.0480
    112 C42        25.8290    9.0092   12.1601 C.3     1  RES11       0.0308
    113 H42A       25.3771    9.8863   12.2348 H       1  RES11       0.0480
    114 H42B       26.3513    8.8719   12.9901 H       1  RES11       0.0480
    115 C43        28.5174   11.0983   15.2388 C.3     1  RES11       0.0308
    116 H43A       28.0052   10.3751   14.7925 H       1  RES11       0.0480
    117 H43B       27.9951   11.9319   15.1444 H       1  RES11       0.0480
    118 C44        28.6480   10.7769   16.6721 C.3     1  RES11       0.0308
    119 H44A       29.3176   10.0604   16.7922 H       1  RES11       0.0480
    120 H44B       27.7809   10.4521   17.0197 H       1  RES11       0.0480
    121 C45        22.9164   11.9286   16.1271 C.3     1  RES11       0.0308
    122 H45A       23.7634   11.5101   16.4146 H       1  RES11       0.0480
    123 H45B       22.9264   11.9754   15.1401 H       1  RES11       0.0480
    124 C46        21.7547   11.0045   16.5519 C.3     1  RES11       0.0308
    125 H46A       21.9254   10.0973   16.1915 H       1  RES11       0.0480
    126 H46B       21.7480   10.9376   17.5390 H       1  RES11       0.0480
    127 C47        27.5900    4.8645   15.4276 C.3     1  RES11       0.0308
    128 H47A       26.7966    4.3021   15.2388 H       1  RES11       0.0480
    129 H47B       27.3925    5.7818   15.1100 H       1  RES11       0.0480
    130 C48        27.8177    4.9047   16.9296 C.3     1  RES11       0.0308
    131 H48A       28.6245    5.4470   17.1098 H       1  RES11       0.0480
    132 H48B       27.0477    5.3600   17.3501 H       1  RES11       0.0480
    133 C49        23.8605    9.1297   22.2895 C.2     1  RES11       0.2221
    134 C50        23.6763   10.0738   23.4388 C.3     1  RES11       0.0479
    135 C51        23.3047   11.5168   23.0019 C.3     1  RES11      -0.0362
    136 H51A       24.0312   11.8917   22.4483 H       1  RES11       0.0278
    137 H51B       22.4778   11.4967   22.4569 H       1  RES11       0.0278
    138 C52        23.0871   12.3906   24.2207 C.3     1  RES11      -0.0396
    139 H52        22.8729   13.3213   23.9246 H       1  RES11       0.0301
    140 C53        24.2555   12.4174   25.0704 C.3     1  RES11      -0.0473
    141 H53A       24.0814   13.0066   25.8428 H       1  RES11       0.0271
    142 H53B       25.0189   12.7923   24.5640 H       1  RES11       0.0271
    143 C54        24.6272   10.9845   25.5810 C.3     1  RES11      -0.0396
    144 H54        25.4373   11.0447   26.1690 H       1  RES11       0.0301
    145 C55        24.9285   10.0839   24.4224 C.3     1  RES11      -0.0362
    146 H55A       25.1092    9.1666   24.7442 H       1  RES11       0.0278
    147 H55B       25.7320   10.4086   23.9417 H       1  RES11       0.0278
    148 C56        22.5146    9.5214   24.2979 C.3     1  RES11      -0.0362
    149 H56A       21.7044    9.4344   23.7357 H       1  RES11       0.0278
    150 H56B       22.7523    8.6208   24.6283 H       1  RES11       0.0278
    151 C57        21.8785   11.8147   25.0532 C.3     1  RES11      -0.0473
    152 H57A       21.7245   12.3705   25.8557 H       1  RES11       0.0271
    153 H57B       21.0549   11.8181   24.5039 H       1  RES11       0.0271
    154 C58        23.4520   10.4287   26.3964 C.3     1  RES11      -0.0473
    155 H58A       23.2813   11.0012   27.1860 H       1  RES11       0.0271
    156 H58B       23.6563    9.5114   26.7140 H       1  RES11       0.0271
    157 C59        22.2167   10.4120   25.4566 C.3     1  RES11      -0.0396
    158 H59        21.4400   10.0303   25.9587 H       1  RES11       0.0301
    159 C60        26.4986    6.7058   22.3539 C.2     1  RES11       0.2221
    160 C61        26.6125    5.7283   23.4954 C.3     1  RES11       0.0479
    161 C62        27.7574    6.1903   24.3923 C.3     1  RES11      -0.0362
    162 H62A       27.5566    7.0942   24.7442 H       1  RES11       0.0278
    163 H62B       28.5911    6.2438   23.8645 H       1  RES11       0.0278
    164 C63        27.9516    5.2026   25.5725 C.3     1  RES11      -0.0396
    165 H63        28.7082    5.5207   26.1475 H       1  RES11       0.0301
    166 C64        28.2864    3.8099   25.0232 C.3     1  RES11      -0.0473
    167 H64A       29.1267    3.8501   24.5039 H       1  RES11       0.0271
    168 H64B       28.4203    3.1772   25.7741 H       1  RES11       0.0271
    169 C65        27.2017    3.3412   24.1735 C.3     1  RES11      -0.0396
    170 H65        27.4360    2.4339   23.8259 H       1  RES11       0.0301
    171 C66        27.0209    4.3054   22.9654 C.3     1  RES11      -0.0362
    172 H66A       26.3145    3.9572   22.3625 H       1  RES11       0.0278
    173 H66B       27.8646    4.3657   22.4526 H       1  RES11       0.0278
    174 C67        25.3536    5.6178   24.3580 C.3     1  RES11      -0.0362
    175 H67A       25.1427    6.5016   24.7485 H       1  RES11       0.0278
    176 H67B       24.5903    5.3432   23.7915 H       1  RES11       0.0278
    177 C68        26.6459    5.1725   26.4221 C.3     1  RES11      -0.0473
    178 H68A       26.4116    6.0798   26.7354 H       1  RES11       0.0271
    179 H68B       26.7564    4.5833   27.2118 H       1  RES11       0.0271
    180 C69        25.8826    3.2508   24.9245 C.3     1  RES11      -0.0473
    181 H69A       25.1662    2.9395   24.3151 H       1  RES11       0.0271
    182 H69B       25.9630    2.6013   25.6669 H       1  RES11       0.0271
    183 C70        25.5311    4.6134   25.4738 C.3     1  RES11      -0.0396
    184 H70        24.6740    4.5464   25.9844 H       1  RES11       0.0301
    185 C71        21.1487    2.9763   15.1358 C.2     1  RES11       0.2221
    186 C72        20.6666    1.5133   15.4147 C.3     1  RES11       0.0479
    187 C73        21.8450    0.5993   15.8911 C.3     1  RES11      -0.0362
    188 H73A       22.5715    0.6127   15.2173 H       1  RES11       0.0278
    189 H73B       22.2066    0.9408   16.7450 H       1  RES11       0.0278
    190 C74        21.3462   -0.8370   16.0799 C.3     1  RES11      -0.0396
    191 H74        22.0894   -1.4229   16.3974 H       1  RES11       0.0301
    192 C75        20.8239   -1.3191   14.6508 C.3     1  RES11      -0.0473
    193 H75A       21.5705   -1.2856   14.0028 H       1  RES11       0.0271
    194 H75B       20.5159   -2.2565   14.7152 H       1  RES11       0.0271
    195 C76        19.7191   -0.4787   14.1573 C.3     1  RES11      -0.0396
    196 H76        19.4145   -0.7935   13.2604 H       1  RES11       0.0301
    197 C77        20.1912    0.9441   14.0801 C.3     1  RES11      -0.0362
    198 H77A       19.4546    1.5099   13.7368 H       1  RES11       0.0278
    199 H77B       20.9378    0.9977   13.4278 H       1  RES11       0.0278
    200 C78        19.5183    1.4429   16.4790 C.3     1  RES11      -0.0362
    201 H78A       19.8464    1.7610   17.3544 H       1  RES11       0.0278
    202 H78B       18.7583    2.0154   16.2000 H       1  RES11       0.0278
    203 C79        20.1979   -0.8604   17.0669 C.3     1  RES11      -0.0473
    204 H79A       19.8932   -1.7911   17.1956 H       1  RES11       0.0271
    205 H79B       20.5092   -0.5156   17.9423 H       1  RES11       0.0271
    206 C80        18.6177   -0.4687   15.0757 C.3     1  RES11      -0.0473
    207 H80A       18.2159   -1.3726   15.1100 H       1  RES11       0.0271
    208 H80B       17.9280    0.1574   14.7453 H       1  RES11       0.0271
    209 C81        19.0629   -0.0301   16.5820 C.3     1  RES11      -0.0396
    210 H81        18.2862   -0.1071   17.2042 H       1  RES11       0.0301
    211 C82        18.9257    5.7350   16.4103 C.2     1  RES11       0.2221
    212 C83        17.4526    5.8488   15.8953 C.3     1  RES11       0.0479
    213 C84        17.1479    4.7038   14.8912 C.3     1  RES11      -0.0362
    214 H84A       17.3823    3.8266   15.2945 H       1  RES11       0.0278
    215 H84B       17.6836    4.8210   14.0672 H       1  RES11       0.0278
    216 C85        15.6012    4.7540   14.5521 C.3     1  RES11      -0.0396
    217 H85        15.3602    3.9974   13.9428 H       1  RES11       0.0301
    218 C86        15.3635    6.0597   13.8698 C.3     1  RES11      -0.0473
    219 H86A       14.4261    6.0999   13.5522 H       1  RES11       0.0271
    220 H86B       15.9561    6.1334   13.0802 H       1  RES11       0.0271
    221 C87        15.6280    7.2315   14.8139 C.3     1  RES11      -0.0396
    222 H87        15.4305    8.1053   14.3719 H       1  RES11       0.0301
    223 C88        17.0776    7.1679   15.3160 C.3     1  RES11      -0.0362
    224 H88A       17.6870    7.3754   14.5650 H       1  RES11       0.0278
    225 H88B       17.2049    7.8676   16.0069 H       1  RES11       0.0278
    226 C89        16.5554    5.6747   17.1527 C.3     1  RES11      -0.0362
    227 H89A       16.7362    4.7942   17.5733 H       1  RES11       0.0278
    228 H89B       16.7629    6.3811   17.8136 H       1  RES11       0.0278
    229 C90        14.7977    4.6536   15.8567 C.3     1  RES11      -0.0473
    230 H90A       13.8302    4.6368   15.6464 H       1  RES11       0.0271
    231 H90B       15.0254    3.8066   16.3159 H       1  RES11       0.0271
    232 C91        14.7810    7.0440   16.1314 C.3     1  RES11      -0.0473
    233 H91A       14.9952    7.7705   16.7665 H       1  RES11       0.0271
    234 H91B       13.8168    7.0942   15.9168 H       1  RES11       0.0271
    235 C92        15.0756    5.7651   16.7365 C.3     1  RES11      -0.0396
    236 H92        14.5098    5.6680   17.5561 H       1  RES11       0.0301
    237 C93        24.0747    7.3687    9.7900 C.2     1  RES11       0.2221
    238 C94        23.0536    7.3453    8.6296 C.3     1  RES11       0.0479
    239 C95        21.6475    6.9569    9.0956 C.3     1  RES11      -0.0362
    240 H95A       21.6743    6.0865    9.5612 H       1  RES11       0.0278
    241 H95B       21.3027    7.6366    9.7286 H       1  RES11       0.0278
    242 C96        20.7268    6.8699    7.8876 C.3     1  RES11      -0.0396
    243 H96        19.8028    6.6556    8.2009 H       1  RES11       0.0301
    244 C97        21.1889    5.7617    6.9478 C.3     1  RES11      -0.0473
    245 H97A       20.5795    5.6981    6.1710 H       1  RES11       0.0271
    246 H97B       21.1855    4.8913    7.4198 H       1  RES11       0.0271
    247 C98        22.6117    6.1032    6.4757 C.3     1  RES11      -0.0396
    248 H98        22.9331    5.3700    5.8792 H       1  RES11       0.0301
    249 C99        23.5458    6.1936    7.6816 C.3     1  RES11      -0.0362
    250 H99A       24.4698    6.3777    7.3769 H       1  RES11       0.0278
    251 H99B       23.5458    5.3332    8.1708 H       1  RES11       0.0278
    252 C100       23.1106    8.6677    7.8301 C.3     1  RES11      -0.0362
    253 H10A       24.0279    8.8351    7.5014 H       1  RES11       0.0278
    254 H10B       22.8327    9.4277    8.3983 H       1  RES11       0.0278
    255 C101       20.6934    8.2157    7.1280 C.3     1  RES11      -0.0473
    256 H10C       20.0606    8.1655    6.3727 H       1  RES11       0.0271
    257 H10D       20.4021    8.9422    7.7374 H       1  RES11       0.0271
    258 C102       22.5548    7.3955    5.6646 C.3     1  RES11      -0.0473
    259 H10E       23.4487    7.6064    5.2870 H       1  RES11       0.0271
    260 H10F       21.9120    7.3085    4.9179 H       1  RES11       0.0271
    261 C103       22.1129    8.4936    6.6173 C.3     1  RES11      -0.0396
    262 H103       22.0928    9.3540    6.1067 H       1  RES11       0.0301
    263 C104       26.4785    9.9232   10.0204 C.2     1  RES11       0.2221
    264 C105       27.4093   10.1307    8.8137 C.3     1  RES11       0.0479
    265 C106       27.4863    8.9523    7.8447 C.3     1  RES11      -0.0362
    266 H10G       26.5823    8.7280    7.5099 H       1  RES11       0.0278
    267 H10H       27.8545    8.1588    8.3039 H       1  RES11       0.0278
    268 C107       28.4170    9.3607    6.6474 C.3     1  RES11      -0.0396
    269 H107       28.4940    8.5673    6.0466 H       1  RES11       0.0301
    270 C108       29.8599    9.6654    7.2138 C.3     1  RES11      -0.0473
    271 H10I       30.1847    8.8987    7.7460 H       1  RES11       0.0271
    272 H10J       30.4927    9.8261    6.4714 H       1  RES11       0.0271
    273 C109       29.7528   10.8773    8.0678 C.3     1  RES11      -0.0396
    274 H109       30.6668   11.1251    8.3897 H       1  RES11       0.0301
    275 C110       28.8455   10.5325    9.3171 C.3     1  RES11      -0.0362
    276 H11A       29.2439    9.7859    9.8273 H       1  RES11       0.0278
    277 H11B       28.7852   11.3192    9.9131 H       1  RES11       0.0278
    278 C111       26.8769   11.3159    7.9863 C.3     1  RES11      -0.0362
    279 H11C       25.9630   11.0983    7.6730 H       1  RES11       0.0278
    280 H11D       26.8066   12.1094    8.5785 H       1  RES11       0.0278
    281 C112       27.8244   10.4354    5.8706 C.3     1  RES11      -0.0473
    282 H11E       26.9272   10.1709    5.5488 H       1  RES11       0.0271
    283 H11F       28.3935   10.6430    5.0853 H       1  RES11       0.0271
    284 C113       29.1703   12.0424    7.2954 C.3     1  RES11      -0.0473
    285 H11G       29.7461   12.2500    6.5186 H       1  RES11       0.0271
    286 H11H       29.1368   12.8425    7.8747 H       1  RES11       0.0271
    287 C114       27.7173   11.6842    6.7976 C.3     1  RES11      -0.0396
    288 H114       27.3122   12.4542    6.3041 H       1  RES11       0.0301
    289 C115       30.1847   12.5379   14.2818 C.2     1  RES11       0.2221
    290 C116       31.5506   12.8057   13.5050 C.3     1  RES11       0.0479
    291 C117       31.5707   12.0658   12.1189 C.3     1  RES11      -0.0362
    292 H11I       30.8141   12.3705   11.5567 H       1  RES11       0.0278
    293 H11J       31.4970   11.0882   12.2477 H       1  RES11       0.0278
    294 C118       32.9668   12.4341   11.4237 C.3     1  RES11      -0.0396
    295 H118       33.0505   11.9118   10.5740 H       1  RES11       0.0301
    296 C119       34.1754   12.1127   12.3249 C.3     1  RES11      -0.0473
    297 H11K       34.1888   11.1485   12.5438 H       1  RES11       0.0271
    298 H11L       35.0190   12.3404   11.8614 H       1  RES11       0.0271
    299 C120       34.0448   12.9396   13.6080 C.3     1  RES11      -0.0396
    300 H120       34.8382   12.7488   14.1831 H       1  RES11       0.0301
    301 C121       32.7625   12.5680   14.4191 C.3     1  RES11      -0.0362
    302 H12A       32.7994   11.6206   14.6980 H       1  RES11       0.0278
    303 H12B       32.6956   13.1338   15.2259 H       1  RES11       0.0278
    304 C122       31.5540   14.3357   13.1875 C.3     1  RES11      -0.0362
    305 H12C       30.7069   14.5634   12.7240 H       1  RES11       0.0278
    306 H12D       31.5707   14.8345   14.0415 H       1  RES11       0.0278
    307 C123       32.9266   13.8637   11.0933 C.3     1  RES11      -0.0473
    308 H12E       32.1968   14.0210   10.4453 H       1  RES11       0.0271
    309 H12F       33.7770   14.1147   10.6513 H       1  RES11       0.0271
    310 C124       34.0548   14.4261   13.2776 C.3     1  RES11      -0.0473
    311 H12G       34.8818   14.6538   12.7841 H       1  RES11       0.0271
    312 H12H       34.0348   14.9551   14.1144 H       1  RES11       0.0271
    313 C125       32.7090   14.7977   12.3335 C.3     1  RES11      -0.0396
    314 H125       32.6588   15.7686   12.0932 H       1  RES11       0.0301
    315 C126       30.4257   11.9051   17.8951 C.2     1  RES11       0.2221
    316 C127       30.9748   13.0401   18.7920 C.3     1  RES11       0.0479
    317 C128       32.3675   12.5546   19.1911 C.3     1  RES11      -0.0362
    318 H12I       32.9232   12.4475   18.3801 H       1  RES11       0.0278
    319 H12J       32.2938   11.6741   19.6332 H       1  RES11       0.0278
    320 C129       33.0672   13.5523   20.1524 C.3     1  RES11      -0.0396
    321 H129       33.9544   13.2108   20.4614 H       1  RES11       0.0301
    322 C130       32.2202   13.9708   21.2853 C.3     1  RES11      -0.0473
    323 H13A       32.6855   14.6872   21.7789 H       1  RES11       0.0271
    324 H13B       32.1097   13.2041   21.8990 H       1  RES11       0.0271
    325 C131       30.8643   14.4663   20.8820 C.3     1  RES11      -0.0396
    326 H131       30.3119   14.6738   21.6887 H       1  RES11       0.0301
    327 C132       30.1746   13.4150   20.0194 C.3     1  RES11      -0.0362
    328 H13C       30.0206   12.6015   20.5644 H       1  RES11       0.0278
    329 H13D       29.2941   13.7599   19.7319 H       1  RES11       0.0278
    330 C133       31.1924   14.3190   17.9423 C.3     1  RES11      -0.0362
    331 H13E       31.7180   14.0880   17.1356 H       1  RES11       0.0278
    332 H13F       30.3152   14.6671   17.6462 H       1  RES11       0.0278
    333 C134       33.2179   14.9149   19.1611 C.3     1  RES11      -0.0473
    334 H13G       33.6665   15.6414   19.6632 H       1  RES11       0.0271
    335 H13H       33.7770   14.6906   18.3758 H       1  RES11       0.0271
    336 C135       30.9949   15.6983   19.9936 C.3     1  RES11      -0.0473
    337 H13I       31.4000   16.4382   20.5086 H       1  RES11       0.0271
    338 H13J       30.0976   15.9862   19.6889 H       1  RES11       0.0271
    339 C136       31.9122   15.3669   18.7148 C.3     1  RES11      -0.0396
    340 H136       32.0126   16.1871   18.1526 H       1  RES11       0.0301
    341 C137       22.4544   14.2989   15.7709 C.2     1  RES11       0.2221
    342 C138       22.5782   15.7686   16.2301 C.3     1  RES11       0.0479
    343 C139       23.9274   16.1168   16.8137 C.3     1  RES11      -0.0362
    344 H13K       24.1015   15.5276   17.5904 H       1  RES11       0.0278
    345 H13L       24.6238   15.9360   16.1357 H       1  RES11       0.0278
    346 C140       24.0312   17.5597   17.2557 C.3     1  RES11      -0.0396
    347 H140       24.8983   17.7539   17.7149 H       1  RES11       0.0301
    348 C141       22.8025   17.9213   18.1397 C.3     1  RES11      -0.0473
    349 H14A       22.8595   17.4024   18.9809 H       1  RES11       0.0271
    350 H14B       22.8628   18.8788   18.3801 H       1  RES11       0.0271
    351 C142       21.5236   17.6836   17.5561 C.3     1  RES11      -0.0396
    352 H142       20.7737   18.0084   18.1312 H       1  RES11       0.0301
    353 C143       21.4132   16.1101   17.2300 C.3     1  RES11      -0.0362
    354 H14C       21.5069   15.5811   18.0582 H       1  RES11       0.0278
    355 H14D       20.5360   15.9025   16.8180 H       1  RES11       0.0278
    356 C144       22.4644   16.6357   14.9813 C.3     1  RES11      -0.0362
    357 H14E       21.5973   16.4583   14.5350 H       1  RES11       0.0278
    358 H14F       23.1876   16.3980   14.3462 H       1  RES11       0.0278
    359 C145       23.9274   18.2762   15.7623 C.3     1  RES11      -0.0473
    360 H14G       24.3124   19.1902   15.8009 H       1  RES11       0.0271
    361 H14H       24.4430   17.7506   15.1014 H       1  RES11       0.0271
    362 C146       21.6442   18.4235   16.3502 C.3     1  RES11      -0.0473
    363 H14I       20.7838   18.2929   15.8868 H       1  RES11       0.0271
    364 H14J       21.6576   19.3709   16.6378 H       1  RES11       0.0271
    365 C147       22.5816   18.3364   15.3847 C.3     1  RES11      -0.0396
    366 H147       22.4108   18.9458   14.6122 H       1  RES11       0.0301
    367 C148       19.6488   12.0625   17.0755 C.2     1  RES11       0.2221
    368 C149       18.1958   12.4140   16.7322 C.3     1  RES11       0.0479
    369 C150       17.3890   11.2523   16.2000 C.3     1  RES11      -0.0362
    370 H15A       17.4225   10.5191   16.8695 H       1  RES11       0.0278
    371 H15B       17.8242   10.9208   15.3761 H       1  RES11       0.0278
    372 C151       15.9059   11.5536   15.8825 C.3     1  RES11      -0.0396
    373 H151       15.4037   10.7836   15.4920 H       1  RES11       0.0301
    374 C152       15.9025   12.8526   14.9899 C.3     1  RES11      -0.0473
    375 H15C       16.3143   12.6350   14.1144 H       1  RES11       0.0271
    376 H15D       14.9651   13.1171   14.8182 H       1  RES11       0.0271
    377 C153       16.5821   13.9474   15.5435 C.3     1  RES11      -0.0396
    378 H153       16.4784   14.7408   14.9427 H       1  RES11       0.0301
    379 C154       18.1322   13.6260   15.7194 C.3     1  RES11      -0.0362
    380 H15E       18.5407   13.3749   14.8525 H       1  RES11       0.0278
    381 H15F       18.6143   14.4094   16.0842 H       1  RES11       0.0278
    382 C155       17.5296   12.8727   18.0410 C.3     1  RES11      -0.0362
    383 H15G       17.9983   13.6728   18.3929 H       1  RES11       0.0278
    384 H15H       17.5999   12.1529   18.7191 H       1  RES11       0.0278
    385 C156       15.4238   11.9788   17.4016 C.3     1  RES11      -0.0473
    386 H15I       14.4361   11.9620   17.4445 H       1  RES11       0.0271
    387 H15J       15.7686   11.3126   18.0453 H       1  RES11       0.0271
    388 C157       15.9628   14.2453   16.8566 C.3     1  RES11      -0.0473
    389 H15K       16.4750   14.9852   17.2686 H       1  RES11       0.0271
    390 H15L       15.0488   14.5801   16.6893 H       1  RES11       0.0271
    391 C158       15.8791   13.2443   17.7621 C.3     1  RES11      -0.0396
    392 H158       15.4338   13.5590   18.6032 H       1  RES11       0.0301
    393 C159       28.6413    3.0801   14.1831 C.2     1  RES11       0.2221
    394 C160       29.7561    2.4205   13.2647 C.3     1  RES11       0.0479
    395 C161       30.2081    3.3680   12.0588 C.3     1  RES11      -0.0362
    396 H16C       29.4381    3.5789   11.4795 H       1  RES11       0.0278
    397 H16D       30.5864    4.2150   12.4064 H       1  RES11       0.0278
    398 C162       31.2225    2.6281   11.3121 C.3     1  RES11      -0.0396
    399 H162       31.5171    3.1872   10.5397 H       1  RES11       0.0301
    400 C163       30.6735    1.3492   10.7843 C.3     1  RES11      -0.0473
    401 H16E       31.4000    0.8771   10.3037 H       1  RES11       0.0271
    402 H16F       29.9737    1.5668   10.1191 H       1  RES11       0.0271
    403 C164       30.0842    0.3984   11.7885 C.3     1  RES11      -0.0396
    404 H164       29.6590   -0.4151   11.3937 H       1  RES11       0.0301
    405 C165       29.2372    1.1651   12.6725 C.3     1  RES11      -0.0362
    406 H16G       28.9694    0.5691   13.4192 H       1  RES11       0.0278
    407 H16H       28.4103    1.3894   12.1704 H       1  RES11       0.0278
    408 C166       30.9748    2.0690   14.1316 C.3     1  RES11      -0.0362
    409 H16I       31.3598    2.8993   14.5178 H       1  RES11       0.0278
    410 H16J       30.6869    1.4898   14.8826 H       1  RES11       0.0278
    411 C167       32.3943    2.2833   12.1017 C.3     1  RES11      -0.0473
    412 H16K       32.8094    3.1135   12.4451 H       1  RES11       0.0271
    413 H16L       33.0572    1.8313   11.5181 H       1  RES11       0.0271
    414 C168       31.4669    0.0904   12.7669 C.3     1  RES11      -0.0473
    415 H16M       31.2091   -0.5022   13.5179 H       1  RES11       0.0271
    416 H16N       32.1532   -0.3783   12.2305 H       1  RES11       0.0271
    417 C169       32.0361    1.3492   13.3033 C.3     1  RES11      -0.0396
    418 H169       32.8462    1.1617   13.8569 H       1  RES11       0.0301
    419 C170       29.2506    3.1905   17.8634 C.2     1  RES11       0.2221
    420 C171       29.5017    1.8514   18.6178 C.3     1  RES11       0.0479
    421 C172       29.2305    0.6194   17.7239 C.3     1  RES11      -0.0362
    422 H17C       28.2764    0.5993   17.4660 H       1  RES11       0.0278
    423 H17D       29.7729    0.6830   16.8995 H       1  RES11       0.0278
    424 C173       29.5887   -0.6863   18.4745 C.3     1  RES11      -0.0396
    425 H173       29.3979   -1.4764   17.8951 H       1  RES11       0.0301
    426 C174       28.7116   -0.7566   19.7748 C.3     1  RES11      -0.0473
    427 H17E       27.7541   -0.7499   19.5302 H       1  RES11       0.0271
    428 H17F       28.9058   -1.5936   20.2640 H       1  RES11       0.0271
    429 C175       29.0162    0.4185   20.6438 C.3     1  RES11      -0.0396
    430 H175       28.4705    0.3482   21.4785 H       1  RES11       0.0301
    431 C176       28.6848    1.7510   19.9413 C.3     1  RES11      -0.0362
    432 H17G       28.9125    2.5076   20.5343 H       1  RES11       0.0278
    433 H17H       27.7173    1.7911   19.7404 H       1  RES11       0.0278
    434 C177       30.9915    1.8313   18.9852 C.3     1  RES11      -0.0362
    435 H17I       31.2091    2.6248   19.5345 H       1  RES11       0.0278
    436 H17J       31.5372    1.8681   18.1569 H       1  RES11       0.0278
    437 C178       31.0384   -0.6696   18.8607 C.3     1  RES11      -0.0473
    438 H17K       31.5975   -0.5993   18.0453 H       1  RES11       0.0271
    439 H17L       31.2694   -1.5133   19.3242 H       1  RES11       0.0271
    440 C179       30.5061    0.4654   21.0279 C.3     1  RES11      -0.0473
    441 H17M       30.6835    1.2655   21.5857 H       1  RES11       0.0271
    442 H17N       30.7438   -0.3381   21.5557 H       1  RES11       0.0271
    443 C180       31.3230    0.5189   19.7876 C.3     1  RES11      -0.0396
    444 H180       32.2938    0.5189   20.0323 H       1  RES11       0.0301
@<TRIPOS>BOND
     1     1   133    2
     2     2   159    2
     3     3   185    2
     4     4   211    2
     5     5   237    2
     6     6   263    2
     7     7   289    2
     8     8   315    2
     9     9   341    2
    10    10   367    2
    11    11   393    2
    12    12   419    2
    13    13    37    1
    14    13    97    1
    15    13   133   am
    16    14    73    1
    17    14   100    1
    18    14   159   am
    19    15    76    1
    20    15   103    1
    21    15   185   am
    22    16    52    1
    23    16   106    1
    24    16   211   am
    25    17    58    1
    26    17   109    1
    27    17   237   am
    28    18    94    1
    29    18   112    1
    30    18   263   am
    31    19    88    1
    32    19   115    1
    33    19   289   am
    34    20    40    1
    35    20   118    1
    36    20   315   am
    37    21    34    1
    38    21   121    1
    39    21   341   am
    40    22    55    1
    41    22   124    1
    42    22   367   am
    43    23    91    1
    44    23   127    1
    45    23   393   am
    46    24    70    1
    47    24   130    1
    48    24   419   am
    49    25    26   ar
    50    25    32   ar
    51    25    34    1
    52    26    27    1
    53    26    28   ar
    54    28    29   ar
    55    28    37    1
    56    29    30    1
    57    29    31   ar
    58    31    32   ar
    59    31    40    1
    60    32    33    1
    61    34    35    1
    62    34    36    1
    63    37    38    1
    64    37    39    1
    65    40    41    1
    66    40    42    1
    67    43    44   ar
    68    43    50   ar
    69    43    52    1
    70    44    45    1
    71    44    46   ar
    72    46    47   ar
    73    46    55    1
    74    47    48    1
    75    47    49   ar
    76    49    50   ar
    77    49    58    1
    78    50    51    1
    79    52    53    1
    80    52    54    1
    81    55    56    1
    82    55    57    1
    83    58    59    1
    84    58    60    1
    85    61    62   ar
    86    61    68   ar
    87    61    70    1
    88    62    63    1
    89    62    64   ar
    90    64    65   ar
    91    64    73    1
    92    65    66    1
    93    65    67   ar
    94    67    68   ar
    95    67    76    1
    96    68    69    1
    97    70    71    1
    98    70    72    1
    99    73    74    1
   100    73    75    1
   101    76    77    1
   102    76    78    1
   103    79    80   ar
   104    79    86   ar
   105    79    88    1
   106    80    81    1
   107    80    82   ar
   108    82    83   ar
   109    82    91    1
   110    83    84    1
   111    83    85   ar
   112    85    86   ar
   113    85    94    1
   114    86    87    1
   115    88    89    1
   116    88    90    1
   117    91    92    1
   118    91    93    1
   119    94    95    1
   120    94    96    1
   121    97    98    1
   122    97    99    1
   123    97   100    1
   124   100   101    1
   125   100   102    1
   126   103   104    1
   127   103   105    1
   128   103   106    1
   129   106   107    1
   130   106   108    1
   131   109   110    1
   132   109   111    1
   133   109   112    1
   134   112   113    1
   135   112   114    1
   136   115   116    1
   137   115   117    1
   138   115   118    1
   139   118   119    1
   140   118   120    1
   141   121   122    1
   142   121   123    1
   143   121   124    1
   144   124   125    1
   145   124   126    1
   146   127   128    1
   147   127   129    1
   148   127   130    1
   149   130   131    1
   150   130   132    1
   151   133   134    1
   152   134   135    1
   153   134   145    1
   154   134   148    1
   155   135   136    1
   156   135   137    1
   157   135   138    1
   158   138   139    1
   159   138   140    1
   160   138   151    1
   161   140   141    1
   162   140   142    1
   163   140   143    1
   164   143   144    1
   165   143   145    1
   166   143   154    1
   167   145   146    1
   168   145   147    1
   169   148   149    1
   170   148   150    1
   171   148   157    1
   172   151   152    1
   173   151   153    1
   174   151   157    1
   175   154   155    1
   176   154   156    1
   177   154   157    1
   178   157   158    1
   179   159   160    1
   180   160   161    1
   181   160   171    1
   182   160   174    1
   183   161   162    1
   184   161   163    1
   185   161   164    1
   186   164   165    1
   187   164   166    1
   188   164   177    1
   189   166   167    1
   190   166   168    1
   191   166   169    1
   192   169   170    1
   193   169   171    1
   194   169   180    1
   195   171   172    1
   196   171   173    1
   197   174   175    1
   198   174   176    1
   199   174   183    1
   200   177   178    1
   201   177   179    1
   202   177   183    1
   203   180   181    1
   204   180   182    1
   205   180   183    1
   206   183   184    1
   207   185   186    1
   208   186   187    1
   209   186   197    1
   210   186   200    1
   211   187   188    1
   212   187   189    1
   213   187   190    1
   214   190   191    1
   215   190   192    1
   216   190   203    1
   217   192   193    1
   218   192   194    1
   219   192   195    1
   220   195   196    1
   221   195   197    1
   222   195   206    1
   223   197   198    1
   224   197   199    1
   225   200   201    1
   226   200   202    1
   227   200   209    1
   228   203   204    1
   229   203   205    1
   230   203   209    1
   231   206   207    1
   232   206   208    1
   233   206   209    1
   234   209   210    1
   235   211   212    1
   236   212   213    1
   237   212   223    1
   238   212   226    1
   239   213   214    1
   240   213   215    1
   241   213   216    1
   242   216   217    1
   243   216   218    1
   244   216   229    1
   245   218   219    1
   246   218   220    1
   247   218   221    1
   248   221   222    1
   249   221   223    1
   250   221   232    1
   251   223   224    1
   252   223   225    1
   253   226   227    1
   254   226   228    1
   255   226   235    1
   256   229   230    1
   257   229   231    1
   258   229   235    1
   259   232   233    1
   260   232   234    1
   261   232   235    1
   262   235   236    1
   263   237   238    1
   264   238   239    1
   265   238   249    1
   266   238   252    1
   267   239   240    1
   268   239   241    1
   269   239   242    1
   270   242   243    1
   271   242   244    1
   272   242   255    1
   273   244   245    1
   274   244   246    1
   275   244   247    1
   276   247   248    1
   277   247   249    1
   278   247   258    1
   279   249   250    1
   280   249   251    1
   281   252   253    1
   282   252   254    1
   283   252   261    1
   284   255   256    1
   285   255   257    1
   286   255   261    1
   287   258   259    1
   288   258   260    1
   289   258   261    1
   290   261   262    1
   291   263   264    1
   292   264   265    1
   293   264   275    1
   294   264   278    1
   295   265   266    1
   296   265   267    1
   297   265   268    1
   298   268   269    1
   299   268   270    1
   300   268   281    1
   301   270   271    1
   302   270   272    1
   303   270   273    1
   304   273   274    1
   305   273   275    1
   306   273   284    1
   307   275   276    1
   308   275   277    1
   309   278   279    1
   310   278   280    1
   311   278   287    1
   312   281   282    1
   313   281   283    1
   314   281   287    1
   315   284   285    1
   316   284   286    1
   317   284   287    1
   318   287   288    1
   319   289   290    1
   320   290   291    1
   321   290   301    1
   322   290   304    1
   323   291   292    1
   324   291   293    1
   325   291   294    1
   326   294   295    1
   327   294   296    1
   328   294   307    1
   329   296   297    1
   330   296   298    1
   331   296   299    1
   332   299   300    1
   333   299   301    1
   334   299   310    1
   335   301   302    1
   336   301   303    1
   337   304   305    1
   338   304   306    1
   339   304   313    1
   340   307   308    1
   341   307   309    1
   342   307   313    1
   343   310   311    1
   344   310   312    1
   345   310   313    1
   346   313   314    1
   347   315   316    1
   348   316   317    1
   349   316   327    1
   350   316   330    1
   351   317   318    1
   352   317   319    1
   353   317   320    1
   354   320   321    1
   355   320   322    1
   356   320   333    1
   357   322   323    1
   358   322   324    1
   359   322   325    1
   360   325   326    1
   361   325   327    1
   362   325   336    1
   363   327   328    1
   364   327   329    1
   365   330   331    1
   366   330   332    1
   367   330   339    1
   368   333   334    1
   369   333   335    1
   370   333   339    1
   371   336   337    1
   372   336   338    1
   373   336   339    1
   374   339   340    1
   375   341   342    1
   376   342   343    1
   377   342   353    1
   378   342   356    1
   379   343   344    1
   380   343   345    1
   381   343   346    1
   382   346   347    1
   383   346   348    1
   384   346   359    1
   385   348   349    1
   386   348   350    1
   387   348   351    1
   388   351   352    1
   389   351   353    1
   390   351   362    1
   391   353   354    1
   392   353   355    1
   393   356   357    1
   394   356   358    1
   395   356   365    1
   396   359   360    1
   397   359   361    1
   398   359   365    1
   399   362   363    1
   400   362   364    1
   401   362   365    1
   402   365   366    1
   403   367   368    1
   404   368   369    1
   405   368   379    1
   406   368   382    1
   407   369   370    1
   408   369   371    1
   409   369   372    1
   410   372   373    1
   411   372   374    1
   412   372   385    1
   413   374   375    1
   414   374   376    1
   415   374   377    1
   416   377   378    1
   417   377   379    1
   418   377   388    1
   419   379   380    1
   420   379   381    1
   421   382   383    1
   422   382   384    1
   423   382   391    1
   424   385   386    1
   425   385   387    1
   426   385   391    1
   427   388   389    1
   428   388   390    1
   429   388   391    1
   430   391   392    1
   431   393   394    1
   432   394   395    1
   433   394   405    1
   434   394   408    1
   435   395   396    1
   436   395   397    1
   437   395   398    1
   438   398   399    1
   439   398   400    1
   440   398   411    1
   441   400   401    1
   442   400   402    1
   443   400   403    1
   444   403   404    1
   445   403   405    1
   446   403   414    1
   447   405   406    1
   448   405   407    1
   449   408   409    1
   450   408   410    1
   451   408   417    1
   452   411   412    1
   453   411   413    1
   454   411   417    1
   455   414   415    1
   456   414   416    1
   457   414   417    1
   458   417   418    1
   459   419   420    1
   460   420   421    1
   461   420   431    1
   462   420   434    1
   463   421   422    1
   464   421   423    1
   465   421   424    1
   466   424   425    1
   467   424   426    1
   468   424   437    1
   469   426   427    1
   470   426   428    1
   471   426   429    1
   472   429   430    1
   473   429   431    1
   474   429   440    1
   475   431   432    1
   476   431   433    1
   477   434   435    1
   478   434   436    1
   479   434   443    1
   480   437   438    1
   481   437   439    1
   482   437   443    1
   483   440   441    1
   484   440   442    1
   485   440   443    1
   486   443   444    1
