@<TRIPOS>MOLECULE
*****
 252 258 0 0 0
SMALL
GASTEIGER

@<TRIPOS>ATOM
      1 N1         10.7247    4.8583   11.5656 N.am    1  RES111     -0.2952
      2 O1          8.6749    3.9953   11.8209 O.2     1  RES111     -0.2750
      3 C1         12.0122    6.5233   13.5724 C.ar    1  RES111     -0.0524
      4 H1         11.2446    6.0523   13.8773 H       1  RES111      0.0624
      5 C2         12.6907    6.0746   12.4404 C.ar    1  RES111     -0.0295
      6 C3         12.1863    4.8762   11.6491 C.3     1  RES111      0.0398
      7 H3A        12.5660    4.9057   10.7363 H       1  RES111      0.0514
      8 H3B        12.4989    4.0437   12.0842 H       1  RES111      0.0514
      9 C4         10.1061    6.0277   10.9234 C.3     1  RES111      0.0308
     10 H4A        10.5330    6.8492   11.2771 H       1  RES111      0.0480
     11 H4B         9.1485    6.0563   11.1694 H       1  RES111      0.0480
     12 C5          9.8886    3.8810   11.9974 C.2     1  RES111      0.2225
     13 C6         10.3948    2.6429   12.7226 C.3     1  RES111      0.0549
     14 C7          9.1973    1.7748   13.1190 C.3     1  RES111     -0.0505
     15 H7A         8.6647    1.5715   12.3221 H       1  RES111      0.0240
     16 H7B         8.6423    2.2587   13.7675 H       1  RES111      0.0240
     17 H7C         9.5165    0.9413   13.5195 H       1  RES111      0.0240
     18 C9         11.2121    2.8239   14.0928 C.3     1  RES111     -0.0505
     19 H9A        11.4804    1.9456   14.4323 H       1  RES111      0.0240
     20 H9B        10.6428    3.2691   14.7556 H       1  RES111      0.0240
     21 H9C        12.0090    3.3707   13.9282 H       1  RES111      0.0240
     22 N1          9.6054    4.8583    8.7645 N.am    1  RES111     -0.2952
     23 O1         11.6552    3.9953    8.5092 O.2     1  RES111     -0.2750
     24 C1          8.3179    6.5233    6.7577 C.ar    1  RES111     -0.0524
     25 H1          9.0855    6.0523    6.4528 H       1  RES111      0.0624
     26 C2          7.6394    6.0746    7.8897 C.ar    1  RES111     -0.0295
     27 C3          8.1438    4.8762    8.6810 C.3     1  RES111      0.0398
     28 H3A         7.7641    4.9057    9.5938 H       1  RES111      0.0514
     29 H3B         7.8312    4.0437    8.2459 H       1  RES111      0.0514
     30 C4         10.2240    6.0277    9.4067 C.3     1  RES111      0.0308
     31 H4A         9.7971    6.8492    9.0530 H       1  RES111      0.0480
     32 H4B        11.1816    6.0563    9.1607 H       1  RES111      0.0480
     33 C5         10.4415    3.8810    8.3327 C.2     1  RES111      0.2225
     34 C6          9.9353    2.6429    7.6075 C.3     1  RES111      0.0549
     35 C7         11.1328    1.7748    7.2111 C.3     1  RES111     -0.0505
     36 H7A        11.6654    1.5715    8.0080 H       1  RES111      0.0240
     37 H7B        11.6878    2.2587    6.5626 H       1  RES111      0.0240
     38 H7C        10.8136    0.9413    6.8106 H       1  RES111      0.0240
     39 C9          9.1180    2.8239    6.2373 C.3     1  RES111     -0.0505
     40 H9A         8.8497    1.9456    5.8978 H       1  RES111      0.0240
     41 H9B         9.6873    3.2691    5.5745 H       1  RES111      0.0240
     42 H9C         8.3211    3.3707    6.4019 H       1  RES111      0.0240
     43 N1         11.5656    9.6054   15.4718 N.am    1  RES111     -0.2952
     44 O1         11.8209   11.6552   16.3348 O.2     1  RES111     -0.2750
     45 C1         13.5724    8.3179   13.8068 C.ar    1  RES111     -0.0524
     46 H1         13.8773    9.0855   14.2778 H       1  RES111      0.0624
     47 C2         12.4404    7.6394   14.2555 C.ar    1  RES111     -0.0295
     48 C3         11.6491    8.1438   15.4539 C.3     1  RES111      0.0398
     49 H3A        10.7363    7.7641   15.4244 H       1  RES111      0.0514
     50 H3B        12.0842    7.8312   16.2864 H       1  RES111      0.0514
     51 C4         10.9234   10.2240   14.3024 C.3     1  RES111      0.0308
     52 H4A        11.2771    9.7971   13.4809 H       1  RES111      0.0480
     53 H4B        11.1694   11.1816   14.2738 H       1  RES111      0.0480
     54 C5         11.9974   10.4415   16.4491 C.2     1  RES111      0.2225
     55 C6         12.7226    9.9353   17.6872 C.3     1  RES111      0.0549
     56 C7         13.1190   11.1328   18.5553 C.3     1  RES111     -0.0505
     57 H7A        12.3221   11.6654   18.7586 H       1  RES111      0.0240
     58 H7B        13.7675   11.6878   18.0714 H       1  RES111      0.0240
     59 H7C        13.5195   10.8136   19.3888 H       1  RES111      0.0240
     60 C9         14.0928    9.1180   17.5062 C.3     1  RES111     -0.0505
     61 H9A        14.4323    8.8497   18.3845 H       1  RES111      0.0240
     62 H9B        14.7556    9.6873   17.0610 H       1  RES111      0.0240
     63 H9C        13.9282    8.3211   16.9594 H       1  RES111      0.0240
     64 N1          8.7645   10.7247   15.4718 N.am    1  RES111     -0.2952
     65 O1          8.5092    8.6749   16.3348 O.2     1  RES111     -0.2750
     66 C1          6.7577   12.0122   13.8068 C.ar    1  RES111     -0.0524
     67 H1          6.4528   11.2446   14.2778 H       1  RES111      0.0624
     68 C2          7.8897   12.6907   14.2555 C.ar    1  RES111     -0.0295
     69 C3          8.6810   12.1863   15.4539 C.3     1  RES111      0.0398
     70 H3A         9.5938   12.5660   15.4244 H       1  RES111      0.0514
     71 H3B         8.2459   12.4989   16.2864 H       1  RES111      0.0514
     72 C4          9.4067   10.1061   14.3024 C.3     1  RES111      0.0308
     73 H4A         9.0530   10.5330   13.4809 H       1  RES111      0.0480
     74 H4B         9.1607    9.1485   14.2738 H       1  RES111      0.0480
     75 C5          8.3327    9.8886   16.4491 C.2     1  RES111      0.2225
     76 C6          7.6075   10.3948   17.6872 C.3     1  RES111      0.0549
     77 C7          7.2111    9.1973   18.5553 C.3     1  RES111     -0.0505
     78 H7A         8.0080    8.6647   18.7586 H       1  RES111      0.0240
     79 H7B         6.5626    8.6423   18.0714 H       1  RES111      0.0240
     80 H7C         6.8106    9.5165   19.3888 H       1  RES111      0.0240
     81 C9          6.2373   11.2121   17.5062 C.3     1  RES111     -0.0505
     82 H9A         5.8978   11.4804   18.3845 H       1  RES111      0.0240
     83 H9B         5.5745   10.6428   17.0610 H       1  RES111      0.0240
     84 H9C         6.4019   12.0090   16.9594 H       1  RES111      0.0240
     85 N1          4.8583    8.7645    9.6054 N.am    1  RES111     -0.2952
     86 O1          3.9953    8.5092   11.6552 O.2     1  RES111     -0.2750
     87 C1          6.5233    6.7577    8.3179 C.ar    1  RES111     -0.0524
     88 H1          6.0523    6.4528    9.0855 H       1  RES111      0.0624
     89 C2          6.0746    7.8897    7.6394 C.ar    1  RES111     -0.0295
     90 C3          4.8762    8.6810    8.1438 C.3     1  RES111      0.0398
     91 H3A         4.9057    9.5938    7.7641 H       1  RES111      0.0514
     92 H3B         4.0437    8.2459    7.8312 H       1  RES111      0.0514
     93 C4          6.0277    9.4067   10.2240 C.3     1  RES111      0.0308
     94 H4A         6.8492    9.0530    9.7971 H       1  RES111      0.0480
     95 H4B         6.0563    9.1607   11.1816 H       1  RES111      0.0480
     96 C5          3.8810    8.3327   10.4415 C.2     1  RES111      0.2225
     97 C6          2.6429    7.6075    9.9353 C.3     1  RES111      0.0549
     98 C7          1.7748    7.2111   11.1328 C.3     1  RES111     -0.0505
     99 H7A         1.5715    8.0080   11.6654 H       1  RES111      0.0240
    100 H7B         2.2587    6.5626   11.6878 H       1  RES111      0.0240
    101 H7C         0.9413    6.8106   10.8136 H       1  RES111      0.0240
    102 C9          2.8239    6.2373    9.1180 C.3     1  RES111     -0.0505
    103 H9A         1.9456    5.8978    8.8497 H       1  RES111      0.0240
    104 H9B         3.2691    5.5745    9.6873 H       1  RES111      0.0240
    105 H9C         3.3707    6.4019    8.3211 H       1  RES111      0.0240
    106 N1         15.4718    8.7645   10.7247 N.am    1  RES111     -0.2952
    107 O1         16.3348    8.5092    8.6749 O.2     1  RES111     -0.2750
    108 C1         13.8068    6.7577   12.0122 C.ar    1  RES111     -0.0524
    109 H1         14.2778    6.4528   11.2446 H       1  RES111      0.0624
    110 C2         14.2555    7.8897   12.6907 C.ar    1  RES111     -0.0295
    111 C3         15.4539    8.6810   12.1863 C.3     1  RES111      0.0398
    112 H3A        15.4244    9.5938   12.5660 H       1  RES111      0.0514
    113 H3B        16.2864    8.2459   12.4989 H       1  RES111      0.0514
    114 C4         14.3024    9.4067   10.1061 C.3     1  RES111      0.0308
    115 H4A        13.4809    9.0530   10.5330 H       1  RES111      0.0480
    116 H4B        14.2738    9.1607    9.1485 H       1  RES111      0.0480
    117 C5         16.4491    8.3327    9.8886 C.2     1  RES111      0.2225
    118 C6         17.6872    7.6075   10.3948 C.3     1  RES111      0.0549
    119 C7         18.5553    7.2111    9.1973 C.3     1  RES111     -0.0505
    120 H7A        18.7586    8.0080    8.6647 H       1  RES111      0.0240
    121 H7B        18.0714    6.5626    8.6423 H       1  RES111      0.0240
    122 H7C        19.3888    6.8106    9.5165 H       1  RES111      0.0240
    123 C9         17.5062    6.2373   11.2121 C.3     1  RES111     -0.0505
    124 H9A        18.3845    5.8978   11.4804 H       1  RES111      0.0240
    125 H9B        17.0610    5.5745   10.6428 H       1  RES111      0.0240
    126 H9C        16.9594    6.4019   12.0090 H       1  RES111      0.0240
    127 N1          9.6054   15.4718   11.5656 N.am    1  RES111     -0.2952
    128 O1         11.6552   16.3348   11.8209 O.2     1  RES111     -0.2750
    129 C1          8.3179   13.8068   13.5724 C.ar    1  RES111     -0.0524
    130 H1          9.0855   14.2778   13.8773 H       1  RES111      0.0624
    131 C2          7.6394   14.2555   12.4404 C.ar    1  RES111     -0.0295
    132 C3          8.1438   15.4539   11.6491 C.3     1  RES111      0.0398
    133 H3A         7.7641   15.4244   10.7363 H       1  RES111      0.0514
    134 H3B         7.8312   16.2864   12.0842 H       1  RES111      0.0514
    135 C4         10.2240   14.3024   10.9234 C.3     1  RES111      0.0308
    136 H4A         9.7971   13.4809   11.2771 H       1  RES111      0.0480
    137 H4B        11.1816   14.2738   11.1694 H       1  RES111      0.0480
    138 C5         10.4415   16.4491   11.9974 C.2     1  RES111      0.2225
    139 C6          9.9353   17.6872   12.7226 C.3     1  RES111      0.0549
    140 C7         11.1328   18.5553   13.1190 C.3     1  RES111     -0.0505
    141 H7A        11.6654   18.7586   12.3221 H       1  RES111      0.0240
    142 H7B        11.6878   18.0714   13.7675 H       1  RES111      0.0240
    143 H7C        10.8136   19.3888   13.5195 H       1  RES111      0.0240
    144 C9          9.1180   17.5062   14.0928 C.3     1  RES111     -0.0505
    145 H9A         8.8497   18.3845   14.4323 H       1  RES111      0.0240
    146 H9B         9.6873   17.0610   14.7556 H       1  RES111      0.0240
    147 H9C         8.3211   16.9594   13.9282 H       1  RES111      0.0240
    148 N1         10.7247   15.4718    8.7645 N.am    1  RES111     -0.2952
    149 O1          8.6749   16.3348    8.5092 O.2     1  RES111     -0.2750
    150 C1         12.0122   13.8068    6.7577 C.ar    1  RES111     -0.0524
    151 H1         11.2446   14.2778    6.4528 H       1  RES111      0.0624
    152 C2         12.6907   14.2555    7.8897 C.ar    1  RES111     -0.0295
    153 C3         12.1863   15.4539    8.6810 C.3     1  RES111      0.0398
    154 H3A        12.5660   15.4244    9.5938 H       1  RES111      0.0514
    155 H3B        12.4989   16.2864    8.2459 H       1  RES111      0.0514
    156 C4         10.1061   14.3024    9.4067 C.3     1  RES111      0.0308
    157 H4A        10.5330   13.4809    9.0530 H       1  RES111      0.0480
    158 H4B         9.1485   14.2738    9.1607 H       1  RES111      0.0480
    159 C5          9.8886   16.4491    8.3327 C.2     1  RES111      0.2225
    160 C6         10.3948   17.6872    7.6075 C.3     1  RES111      0.0549
    161 C7          9.1973   18.5553    7.2111 C.3     1  RES111     -0.0505
    162 H7A         8.6647   18.7586    8.0080 H       1  RES111      0.0240
    163 H7B         8.6423   18.0714    6.5626 H       1  RES111      0.0240
    164 H7C         9.5165   19.3888    6.8106 H       1  RES111      0.0240
    165 C9         11.2121   17.5062    6.2373 C.3     1  RES111     -0.0505
    166 H9A        11.4804   18.3845    5.8978 H       1  RES111      0.0240
    167 H9B        10.6428   17.0610    5.5745 H       1  RES111      0.0240
    168 H9C        12.0090   16.9594    6.4019 H       1  RES111      0.0240
    169 N1         11.5656   10.7247    4.8583 N.am    1  RES111     -0.2952
    170 O1         11.8209    8.6749    3.9953 O.2     1  RES111     -0.2750
    171 C1         13.5724   12.0122    6.5233 C.ar    1  RES111     -0.0524
    172 H1         13.8773   11.2446    6.0523 H       1  RES111      0.0624
    173 C2         12.4404   12.6907    6.0746 C.ar    1  RES111     -0.0295
    174 C3         11.6491   12.1863    4.8762 C.3     1  RES111      0.0398
    175 H3A        10.7363   12.5660    4.9057 H       1  RES111      0.0514
    176 H3B        12.0842   12.4989    4.0437 H       1  RES111      0.0514
    177 C4         10.9234   10.1061    6.0277 C.3     1  RES111      0.0308
    178 H4A        11.2771   10.5330    6.8492 H       1  RES111      0.0480
    179 H4B        11.1694    9.1485    6.0563 H       1  RES111      0.0480
    180 C5         11.9974    9.8886    3.8810 C.2     1  RES111      0.2225
    181 C6         12.7226   10.3948    2.6429 C.3     1  RES111      0.0549
    182 C7         13.1190    9.1973    1.7748 C.3     1  RES111     -0.0505
    183 H7A        12.3221    8.6647    1.5715 H       1  RES111      0.0240
    184 H7B        13.7675    8.6423    2.2587 H       1  RES111      0.0240
    185 H7C        13.5195    9.5165    0.9413 H       1  RES111      0.0240
    186 C9         14.0928   11.2121    2.8239 C.3     1  RES111     -0.0505
    187 H9A        14.4323   11.4804    1.9456 H       1  RES111      0.0240
    188 H9B        14.7556   10.6428    3.2691 H       1  RES111      0.0240
    189 H9C        13.9282   12.0090    3.3707 H       1  RES111      0.0240
    190 N1          8.7645    9.6054    4.8583 N.am    1  RES111     -0.2952
    191 O1          8.5092   11.6552    3.9953 O.2     1  RES111     -0.2750
    192 C1          6.7577    8.3179    6.5233 C.ar    1  RES111     -0.0524
    193 H1          6.4528    9.0855    6.0523 H       1  RES111      0.0624
    194 C2          7.8897    7.6394    6.0746 C.ar    1  RES111     -0.0295
    195 C3          8.6810    8.1438    4.8762 C.3     1  RES111      0.0398
    196 H3A         9.5938    7.7641    4.9057 H       1  RES111      0.0514
    197 H3B         8.2459    7.8312    4.0437 H       1  RES111      0.0514
    198 C4          9.4067   10.2240    6.0277 C.3     1  RES111      0.0308
    199 H4A         9.0530    9.7971    6.8492 H       1  RES111      0.0480
    200 H4B         9.1607   11.1816    6.0563 H       1  RES111      0.0480
    201 C5          8.3327   10.4415    3.8810 C.2     1  RES111      0.2225
    202 C6          7.6075    9.9353    2.6429 C.3     1  RES111      0.0549
    203 C7          7.2111   11.1328    1.7748 C.3     1  RES111     -0.0505
    204 H7A         8.0080   11.6654    1.5715 H       1  RES111      0.0240
    205 H7B         6.5626   11.6878    2.2587 H       1  RES111      0.0240
    206 H7C         6.8106   10.8136    0.9413 H       1  RES111      0.0240
    207 C9          6.2373    9.1180    2.8239 C.3     1  RES111     -0.0505
    208 H9A         5.8978    8.8497    1.9456 H       1  RES111      0.0240
    209 H9B         5.5745    9.6873    3.2691 H       1  RES111      0.0240
    210 H9C         6.4019    8.3211    3.3707 H       1  RES111      0.0240
    211 N1          4.8583   11.5656   10.7247 N.am    1  RES111     -0.2952
    212 O1          3.9953   11.8209    8.6749 O.2     1  RES111     -0.2750
    213 C1          6.5233   13.5724   12.0122 C.ar    1  RES111     -0.0524
    214 H1          6.0523   13.8773   11.2446 H       1  RES111      0.0624
    215 C2          6.0746   12.4404   12.6907 C.ar    1  RES111     -0.0295
    216 C3          4.8762   11.6491   12.1863 C.3     1  RES111      0.0398
    217 H3A         4.9057   10.7363   12.5660 H       1  RES111      0.0514
    218 H3B         4.0437   12.0842   12.4989 H       1  RES111      0.0514
    219 C4          6.0277   10.9234   10.1061 C.3     1  RES111      0.0308
    220 H4A         6.8492   11.2771   10.5330 H       1  RES111      0.0480
    221 H4B         6.0563   11.1694    9.1485 H       1  RES111      0.0480
    222 C5          3.8810   11.9974    9.8886 C.2     1  RES111      0.2225
    223 C6          2.6429   12.7226   10.3948 C.3     1  RES111      0.0549
    224 C7          1.7748   13.1190    9.1973 C.3     1  RES111     -0.0505
    225 H7A         1.5715   12.3221    8.6647 H       1  RES111      0.0240
    226 H7B         2.2587   13.7675    8.6423 H       1  RES111      0.0240
    227 H7C         0.9413   13.5195    9.5165 H       1  RES111      0.0240
    228 C9          2.8239   14.0928   11.2121 C.3     1  RES111     -0.0505
    229 H9A         1.9456   14.4323   11.4804 H       1  RES111      0.0240
    230 H9B         3.2691   14.7556   10.6428 H       1  RES111      0.0240
    231 H9C         3.3707   13.9282   12.0090 H       1  RES111      0.0240
    232 N1         15.4718   11.5656    9.6054 N.am    1  RES111     -0.2952
    233 O1         16.3348   11.8209   11.6552 O.2     1  RES111     -0.2750
    234 C1         13.8068   13.5724    8.3179 C.ar    1  RES111     -0.0524
    235 H1         14.2778   13.8773    9.0855 H       1  RES111      0.0624
    236 C2         14.2555   12.4404    7.6394 C.ar    1  RES111     -0.0295
    237 C3         15.4539   11.6491    8.1438 C.3     1  RES111      0.0398
    238 H3A        15.4244   10.7363    7.7641 H       1  RES111      0.0514
    239 H3B        16.2864   12.0842    7.8312 H       1  RES111      0.0514
    240 C4         14.3024   10.9234   10.2240 C.3     1  RES111      0.0308
    241 H4A        13.4809   11.2771    9.7971 H       1  RES111      0.0480
    242 H4B        14.2738   11.1694   11.1816 H       1  RES111      0.0480
    243 C5         16.4491   11.9974   10.4415 C.2     1  RES111      0.2225
    244 C6         17.6872   12.7226    9.9353 C.3     1  RES111      0.0549
    245 C7         18.5553   13.1190   11.1328 C.3     1  RES111     -0.0505
    246 H7A        18.7586   12.3221   11.6654 H       1  RES111      0.0240
    247 H7B        18.0714   13.7675   11.6878 H       1  RES111      0.0240
    248 H7C        19.3888   13.5195   10.8136 H       1  RES111      0.0240
    249 C9         17.5062   14.0928    9.1180 C.3     1  RES111     -0.0505
    250 H9A        18.3845   14.4323    8.8497 H       1  RES111      0.0240
    251 H9B        17.0610   14.7556    9.6873 H       1  RES111      0.0240
    252 H9C        16.9594   13.9282    8.3211 H       1  RES111      0.0240
@<TRIPOS>BOND
     1     1     6    1
     2     1     9    1
     3     1    12   am
     4     2    12    2
     5     3     4    1
     6     3     5   ar
     7     3    47   ar
     8     5     6    1
     9     5   108   ar
    10     6     7    1
    11     6     8    1
    12     9    10    1
    13     9    11    1
    14     9    30    1
    15    12    13    1
    16    13    14    1
    17    13    18    1
    18    14    15    1
    19    14    16    1
    20    14    17    1
    21    18    19    1
    22    18    20    1
    23    18    21    1
    24    22    27    1
    25    22    30    1
    26    22    33   am
    27    23    33    2
    28    24    25    1
    29    24    26   ar
    30    24   194   ar
    31    26    27    1
    32    26    87   ar
    33    27    28    1
    34    27    29    1
    35    30    31    1
    36    30    32    1
    37    33    34    1
    38    34    35    1
    39    34    39    1
    40    35    36    1
    41    35    37    1
    42    35    38    1
    43    39    40    1
    44    39    41    1
    45    39    42    1
    46    43    48    1
    47    43    51    1
    48    43    54   am
    49    44    54    2
    50    45    46    1
    51    45    47   ar
    52    45   110   ar
    53    47    48    1
    54    48    49    1
    55    48    50    1
    56    51    52    1
    57    51    53    1
    58    51    72    1
    59    54    55    1
    60    55    56    1
    61    55    60    1
    62    56    57    1
    63    56    58    1
    64    56    59    1
    65    60    61    1
    66    60    62    1
    67    60    63    1
    68    64    69    1
    69    64    72    1
    70    64    75   am
    71    65    75    2
    72    66    67    1
    73    66    68   ar
    74    66   215   ar
    75    68    69    1
    76    68   129   ar
    77    69    70    1
    78    69    71    1
    79    72    73    1
    80    72    74    1
    81    75    76    1
    82    76    77    1
    83    76    81    1
    84    77    78    1
    85    77    79    1
    86    77    80    1
    87    81    82    1
    88    81    83    1
    89    81    84    1
    90    85    90    1
    91    85    93    1
    92    85    96   am
    93    86    96    2
    94    87    88    1
    95    87    89   ar
    96    89    90    1
    97    89   192   ar
    98    90    91    1
    99    90    92    1
   100    93    94    1
   101    93    95    1
   102    93   219    1
   103    96    97    1
   104    97    98    1
   105    97   102    1
   106    98    99    1
   107    98   100    1
   108    98   101    1
   109   102   103    1
   110   102   104    1
   111   102   105    1
   112   106   111    1
   113   106   114    1
   114   106   117   am
   115   107   117    2
   116   108   109    1
   117   108   110   ar
   118   110   111    1
   119   111   112    1
   120   111   113    1
   121   114   115    1
   122   114   116    1
   123   114   240    1
   124   117   118    1
   125   118   119    1
   126   118   123    1
   127   119   120    1
   128   119   121    1
   129   119   122    1
   130   123   124    1
   131   123   125    1
   132   123   126    1
   133   127   132    1
   134   127   135    1
   135   127   138   am
   136   128   138    2
   137   129   130    1
   138   129   131   ar
   139   131   132    1
   140   131   213   ar
   141   132   133    1
   142   132   134    1
   143   135   136    1
   144   135   137    1
   145   135   156    1
   146   138   139    1
   147   139   140    1
   148   139   144    1
   149   140   141    1
   150   140   142    1
   151   140   143    1
   152   144   145    1
   153   144   146    1
   154   144   147    1
   155   148   153    1
   156   148   156    1
   157   148   159   am
   158   149   159    2
   159   150   151    1
   160   150   152   ar
   161   150   173   ar
   162   152   153    1
   163   152   234   ar
   164   153   154    1
   165   153   155    1
   166   156   157    1
   167   156   158    1
   168   159   160    1
   169   160   161    1
   170   160   165    1
   171   161   162    1
   172   161   163    1
   173   161   164    1
   174   165   166    1
   175   165   167    1
   176   165   168    1
   177   169   174    1
   178   169   177    1
   179   169   180   am
   180   170   180    2
   181   171   172    1
   182   171   173   ar
   183   171   236   ar
   184   173   174    1
   185   174   175    1
   186   174   176    1
   187   177   178    1
   188   177   179    1
   189   177   198    1
   190   180   181    1
   191   181   182    1
   192   181   186    1
   193   182   183    1
   194   182   184    1
   195   182   185    1
   196   186   187    1
   197   186   188    1
   198   186   189    1
   199   190   195    1
   200   190   198    1
   201   190   201   am
   202   191   201    2
   203   192   193    1
   204   192   194   ar
   205   194   195    1
   206   195   196    1
   207   195   197    1
   208   198   199    1
   209   198   200    1
   210   201   202    1
   211   202   203    1
   212   202   207    1
   213   203   204    1
   214   203   205    1
   215   203   206    1
   216   207   208    1
   217   207   209    1
   218   207   210    1
   219   211   216    1
   220   211   219    1
   221   211   222   am
   222   212   222    2
   223   213   214    1
   224   213   215   ar
   225   215   216    1
   226   216   217    1
   227   216   218    1
   228   219   220    1
   229   219   221    1
   230   222   223    1
   231   223   224    1
   232   223   228    1
   233   224   225    1
   234   224   226    1
   235   224   227    1
   236   228   229    1
   237   228   230    1
   238   228   231    1
   239   232   237    1
   240   232   240    1
   241   232   243   am
   242   233   243    2
   243   234   235    1
   244   234   236   ar
   245   236   237    1
   246   237   238    1
   247   237   239    1
   248   240   241    1
   249   240   242    1
   250   243   244    1
   251   244   245    1
   252   244   249    1
   253   245   246    1
   254   245   247    1
   255   245   248    1
   256   249   250    1
   257   249   251    1
   258   249   252    1
