@<TRIPOS>MOLECULE
*****
 208 214 0 0 0
SMALL
USER_CHARGES

@<TRIPOS>ATOM
      1 N          15.8480   13.8082   20.6997 N.am    1  RES111     -0.2920
      2 O          14.0127   13.7871   21.9430 O.2     1  RES111     -0.2703
      3 C          17.0681   11.8558   18.8652 C.ar    1  RES111     -0.0524
      4 H          16.2936   11.5549   19.3226 H       1  RES111      0.0624
      5 C          17.7410   12.9800   19.3283 C.ar    1  RES111     -0.0295
      6 C          17.3121   13.7159   20.5728 C.3     1  RES111      0.0401
      7 H          17.6760   13.2504   21.3657 H       1  RES111      0.0514
      8 H          17.6922   14.6307   20.5546 H       1  RES111      0.0514
      9 C          15.1511   14.5169   19.6052 C.3     1  RES111      0.0311
     10 H          15.4703   14.1570   18.7412 H       1  RES111      0.0480
     11 H          14.1814   14.3258   19.6702 H       1  RES111      0.0480
     12 C          15.1796   13.5025   21.8088 C.2     1  RES111      0.2433
     13 C          15.9155   12.9556   23.0042 C.2     1  RES111      0.0188
     14 C          16.1208   11.6525   23.1180 C.2     1  RES111     -0.0529
     15 H          15.8362   11.0752   22.4207 H       1  RES111      0.0622
     16 C          16.3282   13.7972   24.0450 C.3     1  RES111      0.0041
     17 H          16.1757   14.7324   23.9739 H       1  RES111      0.0363
     18 N          14.6453   16.6851   20.6997 N.am    1  RES111     -0.2942
     19 O          16.4806   16.7063   21.9430 O.2     1  RES111     -0.2734
     20 C          13.4252   18.6375   18.8652 C.ar    1  RES111     -0.0524
     21 H          14.1997   18.9384   19.3226 H       1  RES111      0.0624
     22 C          12.7523   17.5133   19.3283 C.ar    1  RES111     -0.0295
     23 C          13.1813   16.7774   20.5728 C.3     1  RES111      0.0400
     24 H          12.8174   17.2430   21.3657 H       1  RES111      0.0514
     25 H          12.8011   15.8626   20.5546 H       1  RES111      0.0514
     26 C          15.3422   15.9765   19.6052 C.3     1  RES111      0.0311
     27 H          15.0231   16.3363   18.7412 H       1  RES111      0.0480
     28 H          16.3119   16.1676   19.6702 H       1  RES111      0.0480
     29 C          15.3138   16.9909   21.8088 C.2     1  RES111      0.2085
     30 C          14.5779   17.5377   23.0042 C.2     1  RES111     -0.1688
     31 C          14.3725   18.8408   23.1180 C.3     1  RES111     -0.5080
     32 H          14.6571   19.4182   22.4207 H       1  RES111     -0.2138
     33 C          14.1652   16.6961   24.0450 C.3     1  RES111     -0.0340
     34 H          14.3176   15.7610   23.9739 H       1  RES111      0.0333
     35 N          20.6997   14.6453   16.6851 N.am    1  RES111     -0.2942
     36 O          21.9430   16.4806   16.7063 O.2     1  RES111     -0.2734
     37 C          18.8652   13.4252   18.6375 C.ar    1  RES111     -0.0524
     38 H          19.3226   14.1997   18.9384 H       1  RES111      0.0624
     39 C          19.3283   12.7523   17.5133 C.ar    1  RES111     -0.0295
     40 C          20.5728   13.1813   16.7774 C.3     1  RES111      0.0400
     41 H          21.3657   12.8174   17.2430 H       1  RES111      0.0514
     42 H          20.5546   12.8011   15.8626 H       1  RES111      0.0514
     43 C          19.6052   15.3422   15.9765 C.3     1  RES111      0.0311
     44 H          18.7412   15.0231   16.3363 H       1  RES111      0.0480
     45 H          19.6702   16.3119   16.1676 H       1  RES111      0.0480
     46 C          21.8088   15.3138   16.9909 C.2     1  RES111      0.2085
     47 C          23.0042   14.5779   17.5377 C.2     1  RES111     -0.1688
     48 C          23.1180   14.3725   18.8408 C.3     1  RES111     -0.5080
     49 H          22.4207   14.6571   19.4182 H       1  RES111     -0.2138
     50 C          24.0450   14.1652   16.6961 C.3     1  RES111     -0.0340
     51 H          23.9739   14.3176   15.7610 H       1  RES111      0.0333
     52 N          16.6851    9.7937   15.8480 N.am    1  RES111     -0.2942
     53 O          16.7063    8.5503   14.0127 O.2     1  RES111     -0.2734
     54 C          18.6375   11.6281   17.0681 C.ar    1  RES111     -0.0524
     55 H          18.9384   11.1707   16.2936 H       1  RES111      0.0624
     56 C          17.5133   11.1650   17.7410 C.ar    1  RES111     -0.0295
     57 C          16.7774    9.9205   17.3121 C.3     1  RES111      0.0400
     58 H          17.2430    9.1277   17.6760 H       1  RES111      0.0514
     59 H          15.8626    9.9388   17.6922 H       1  RES111      0.0514
     60 C          15.9765   10.8882   15.1511 C.3     1  RES111      0.0311
     61 H          16.3363   11.7521   15.4703 H       1  RES111      0.0480
     62 H          16.1676   10.8231   14.1814 H       1  RES111      0.0480
     63 C          16.9909    8.6845   15.1796 C.2     1  RES111      0.2085
     64 C          17.5377    7.4892   15.9155 C.2     1  RES111     -0.1688
     65 C          18.8408    7.3753   16.1208 C.3     1  RES111     -0.5080
     66 H          19.4182    8.0726   15.8362 H       1  RES111     -0.2138
     67 C          16.6961    6.4483   16.3282 C.3     1  RES111     -0.0340
     68 H          15.7610    6.5195   16.1757 H       1  RES111      0.0333
     69 N          20.6997   15.8480   13.8082 N.am    1  RES111     -0.2942
     70 O          21.9430   14.0127   13.7871 O.2     1  RES111     -0.2734
     71 C          18.8652   17.0681   11.8558 C.ar    1  RES111     -0.0524
     72 H          19.3226   16.2936   11.5549 H       1  RES111      0.0624
     73 C          19.3283   17.7410   12.9800 C.ar    1  RES111     -0.0295
     74 C          20.5728   17.3121   13.7159 C.3     1  RES111      0.0400
     75 H          21.3657   17.6760   13.2504 H       1  RES111      0.0514
     76 H          20.5546   17.6922   14.6307 H       1  RES111      0.0514
     77 C          19.6052   15.1511   14.5169 C.3     1  RES111      0.0311
     78 H          18.7412   15.4703   14.1570 H       1  RES111      0.0480
     79 H          19.6702   14.1814   14.3258 H       1  RES111      0.0480
     80 C          21.8088   15.1796   13.5025 C.2     1  RES111      0.2085
     81 C          23.0042   15.9155   12.9556 C.2     1  RES111     -0.1688
     82 C          23.1180   16.1208   11.6525 C.3     1  RES111     -0.5080
     83 H          22.4207   15.8362   11.0752 H       1  RES111     -0.2138
     84 C          24.0450   16.3282   13.7972 C.3     1  RES111     -0.0340
     85 H          23.9739   16.1757   14.7324 H       1  RES111      0.0333
     86 N           9.7937   15.8480   16.6851 N.am    1  RES111     -0.2942
     87 O           8.5503   14.0127   16.7063 O.2     1  RES111     -0.2734
     88 C          11.6281   17.0681   18.6375 C.ar    1  RES111     -0.0524
     89 H          11.1707   16.2936   18.9384 H       1  RES111      0.0624
     90 C          11.1650   17.7410   17.5133 C.ar    1  RES111     -0.0295
     91 C           9.9205   17.3121   16.7774 C.3     1  RES111      0.0400
     92 H           9.1277   17.6760   17.2430 H       1  RES111      0.0514
     93 H           9.9388   17.6922   15.8626 H       1  RES111      0.0514
     94 C          10.8882   15.1511   15.9765 C.3     1  RES111      0.0311
     95 H          11.7521   15.4703   16.3363 H       1  RES111      0.0480
     96 H          10.8231   14.1814   16.1676 H       1  RES111      0.0480
     97 C           8.6845   15.1796   16.9909 C.2     1  RES111      0.2085
     98 C           7.4892   15.9155   17.5377 C.2     1  RES111     -0.1688
     99 C           7.3753   16.1208   18.8408 C.3     1  RES111     -0.5080
    100 H           8.0726   15.8362   19.4182 H       1  RES111     -0.2138
    101 C           6.4483   16.3282   16.6961 C.3     1  RES111     -0.0340
    102 H           6.5195   16.1757   15.7610 H       1  RES111      0.0333
    103 N          13.8082   20.6997   15.8480 N.am    1  RES111     -0.2941
    104 O          13.7871   21.9430   14.0127 O.2     1  RES111     -0.2731
    105 C          11.8558   18.8652   17.0681 C.ar    1  RES111     -0.0524
    106 H          11.5549   19.3226   16.2936 H       1  RES111      0.0624
    107 C          12.9800   19.3283   17.7410 C.ar    1  RES111     -0.0295
    108 C          13.7159   20.5728   17.3121 C.3     1  RES111      0.0400
    109 H          13.2504   21.3657   17.6760 H       1  RES111      0.0514
    110 H          14.6307   20.5546   17.6922 H       1  RES111      0.0514
    111 C          14.5169   19.6052   15.1511 C.3     1  RES111      0.0311
    112 H          14.1570   18.7412   15.4703 H       1  RES111      0.0480
    113 H          14.3258   19.6702   14.1814 H       1  RES111      0.0480
    114 C          13.5025   21.8088   15.1796 C.2     1  RES111      0.2094
    115 C          12.9556   23.0042   15.9155 C.2     1  RES111     -0.1850
    116 C          11.6525   23.1180   16.1208 C.3     1  RES111     -0.5068
    117 H          11.0752   22.4207   15.8362 H       1  RES111     -0.2136
    118 C          13.2951   25.1753   16.9502 C.3     1  RES111     -0.5185
    119 H          13.8846   25.8685   17.2247 H       1  RES111     -0.2142
    120 C          13.7972   24.0450   16.3282 C.2     1  RES111     -0.2738
    121 H          14.7324   23.9739   16.1757 H       1  RES111      0.0193
    122 N          16.6851   20.6997   14.6453 N.am    1  RES111     -0.2942
    123 O          16.7063   21.9430   16.4806 O.2     1  RES111     -0.2734
    124 C          18.6375   18.8652   13.4252 C.ar    1  RES111     -0.0524
    125 H          18.9384   19.3226   14.1997 H       1  RES111      0.0624
    126 C          17.5133   19.3283   12.7523 C.ar    1  RES111     -0.0295
    127 C          16.7774   20.5728   13.1813 C.3     1  RES111      0.0400
    128 H          17.2430   21.3657   12.8174 H       1  RES111      0.0514
    129 H          15.8626   20.5546   12.8011 H       1  RES111      0.0514
    130 C          15.9765   19.6052   15.3422 C.3     1  RES111      0.0311
    131 H          16.3363   18.7412   15.0231 H       1  RES111      0.0480
    132 H          16.1676   19.6702   16.3119 H       1  RES111      0.0480
    133 C          16.9909   21.8088   15.3138 C.2     1  RES111      0.2085
    134 C          17.5377   23.0042   14.5779 C.2     1  RES111     -0.1688
    135 C          18.8408   23.1180   14.3725 C.3     1  RES111     -0.5080
    136 H          19.4182   22.4207   14.6571 H       1  RES111     -0.2138
    137 C          16.6961   24.0450   14.1652 C.3     1  RES111     -0.0340
    138 H          15.7610   23.9739   14.3176 H       1  RES111      0.0333
    139 N          13.8082    9.7937   14.6453 N.am    1  RES111     -0.2942
    140 O          13.7871    8.5503   16.4806 O.2     1  RES111     -0.2734
    141 C          11.8558   11.6281   13.4252 C.ar    1  RES111     -0.0524
    142 H          11.5549   11.1707   14.1997 H       1  RES111      0.0624
    143 C          12.9800   11.1650   12.7523 C.ar    1  RES111     -0.0295
    144 C          13.7159    9.9205   13.1813 C.3     1  RES111      0.0400
    145 H          13.2504    9.1277   12.8174 H       1  RES111      0.0514
    146 H          14.6307    9.9388   12.8011 H       1  RES111      0.0514
    147 C          14.5169   10.8882   15.3422 C.3     1  RES111      0.0311
    148 H          14.1570   11.7521   15.0231 H       1  RES111      0.0480
    149 H          14.3258   10.8231   16.3119 H       1  RES111      0.0480
    150 C          13.5025    8.6845   15.3138 C.2     1  RES111      0.2085
    151 C          12.9556    7.4892   14.5779 C.2     1  RES111     -0.1688
    152 C          11.6525    7.3753   14.3725 C.3     1  RES111     -0.5080
    153 H          11.0752    8.0726   14.6571 H       1  RES111     -0.2138
    154 C          13.7972    6.4483   14.1652 C.3     1  RES111     -0.0340
    155 H          14.7324    6.5195   14.3176 H       1  RES111      0.0333
    156 N          14.6453   13.8082    9.7937 N.am    1  RES111     -0.2942
    157 O          16.4806   13.7871    8.5503 O.2     1  RES111     -0.2734
    158 C          13.4252   11.8558   11.6281 C.ar    1  RES111     -0.0524
    159 H          14.1997   11.5549   11.1707 H       1  RES111      0.0624
    160 C          12.7523   12.9800   11.1650 C.ar    1  RES111     -0.0295
    161 C          13.1813   13.7159    9.9205 C.3     1  RES111      0.0400
    162 H          12.8174   13.2504    9.1277 H       1  RES111      0.0514
    163 H          12.8011   14.6307    9.9388 H       1  RES111      0.0514
    164 C          15.3422   14.5169   10.8882 C.3     1  RES111      0.0311
    165 H          15.0231   14.1570   11.7521 H       1  RES111      0.0480
    166 H          16.3119   14.3258   10.8231 H       1  RES111      0.0480
    167 C          15.3138   13.5025    8.6845 C.2     1  RES111      0.2085
    168 C          14.5779   12.9556    7.4892 C.2     1  RES111     -0.1688
    169 C          14.3725   11.6525    7.3753 C.3     1  RES111     -0.5080
    170 H          14.6571   11.0752    8.0726 H       1  RES111     -0.2138
    171 C          14.1652   13.7972    6.4483 C.3     1  RES111     -0.0340
    172 H          14.3176   14.7324    6.5195 H       1  RES111      0.0333
    173 N          15.8480   16.6851    9.7937 N.am    1  RES111     -0.2942
    174 O          14.0127   16.7063    8.5503 O.2     1  RES111     -0.2734
    175 C          17.0681   18.6375   11.6281 C.ar    1  RES111     -0.0524
    176 H          16.2936   18.9384   11.1707 H       1  RES111      0.0624
    177 C          17.7410   17.5133   11.1650 C.ar    1  RES111     -0.0295
    178 C          17.3121   16.7774    9.9205 C.3     1  RES111      0.0400
    179 H          17.6760   17.2430    9.1277 H       1  RES111      0.0514
    180 H          17.6922   15.8626    9.9388 H       1  RES111      0.0514
    181 C          15.1511   15.9765   10.8882 C.3     1  RES111      0.0311
    182 H          15.4703   16.3363   11.7521 H       1  RES111      0.0480
    183 H          14.1814   16.1676   10.8231 H       1  RES111      0.0480
    184 C          15.1796   16.9909    8.6845 C.2     1  RES111      0.2085
    185 C          15.9155   17.5377    7.4892 C.2     1  RES111     -0.1688
    186 C          16.1208   18.8408    7.3753 C.3     1  RES111     -0.5080
    187 H          15.8362   19.4182    8.0726 H       1  RES111     -0.2138
    188 C          16.3282   16.6961    6.4483 C.3     1  RES111     -0.0340
    189 H          16.1757   15.7610    6.5195 H       1  RES111      0.0333
    190 N           9.7937   14.6453   13.8082 N.am    1  RES111     -0.2941
    191 O           8.5503   16.4806   13.7871 O.2     1  RES111     -0.2731
    192 C          11.6281   13.4252   11.8558 C.ar    1  RES111     -0.0524
    193 H          11.1707   14.1997   11.5549 H       1  RES111      0.0624
    194 C          11.1650   12.7523   12.9800 C.ar    1  RES111     -0.0295
    195 C           9.9205   13.1813   13.7159 C.3     1  RES111      0.0400
    196 H           9.1277   12.8174   13.2504 H       1  RES111      0.0514
    197 H           9.9388   12.8011   14.6307 H       1  RES111      0.0514
    198 C          10.8882   15.3422   14.5169 C.3     1  RES111      0.0311
    199 H          11.7521   15.0231   14.1570 H       1  RES111      0.0480
    200 H          10.8231   16.3119   14.3258 H       1  RES111      0.0480
    201 C           8.6845   15.3138   13.5025 C.2     1  RES111      0.2094
    202 C           7.4892   14.5779   12.9556 C.2     1  RES111     -0.1850
    203 C           7.3753   14.3725   11.6525 C.3     1  RES111     -0.5068
    204 H           8.0726   14.6571   11.0752 H       1  RES111     -0.2136
    205 C           5.3180   13.5431   13.2951 C.3     1  RES111     -0.5185
    206 H           4.6248   13.2687   13.8846 H       1  RES111     -0.2142
    207 C           6.4483   14.1652   13.7972 C.2     1  RES111     -0.2738
    208 H           6.5195   14.3176   14.7324 H       1  RES111      0.0193
@<TRIPOS>BOND
     1     1     6    1
     2     1     9    1
     3     1    12   am
     4     2    12    2
     5     3     4    1
     6     3     5   ar
     7     3    56   ar
     8     5     6    1
     9     5    37   ar
    10     6     7    1
    11     6     8    1
    12     9    10    1
    13     9    11    1
    14     9    26    1
    15    12    13    1
    16    13    14    2
    17    13    16    1
    18    14    15    1
    19    16    17    1
    20    18    23    1
    21    18    26    1
    22    18    29   am
    23    19    29    2
    24    20    21    1
    25    20    22   ar
    26    20   107   ar
    27    22    23    1
    28    22    88   ar
    29    23    24    1
    30    23    25    1
    31    26    27    1
    32    26    28    1
    33    29    30    1
    34    30    31    2
    35    30    33    1
    36    31    32    1
    37    33    34    1
    38    35    40    1
    39    35    43    1
    40    35    46   am
    41    36    46    2
    42    37    38    1
    43    37    39   ar
    44    39    40    1
    45    39    54   ar
    46    40    41    1
    47    40    42    1
    48    43    44    1
    49    43    45    1
    50    43    77    1
    51    46    47    1
    52    47    48    2
    53    47    50    1
    54    48    49    1
    55    50    51    1
    56    52    57    1
    57    52    60    1
    58    52    63   am
    59    53    63    2
    60    54    55    1
    61    54    56   ar
    62    56    57    1
    63    57    58    1
    64    57    59    1
    65    60    61    1
    66    60    62    1
    67    60   147    1
    68    63    64    1
    69    64    65    2
    70    64    67    1
    71    65    66    1
    72    67    68    1
    73    69    74    1
    74    69    77    1
    75    69    80   am
    76    70    80    2
    77    71    72    1
    78    71    73   ar
    79    71   177   ar
    80    73    74    1
    81    73   124   ar
    82    74    75    1
    83    74    76    1
    84    77    78    1
    85    77    79    1
    86    80    81    1
    87    81    82    2
    88    81    84    1
    89    82    83    1
    90    84    85    1
    91    86    91    1
    92    86    94    1
    93    86    97   am
    94    87    97    2
    95    88    89    1
    96    88    90   ar
    97    90    91    1
    98    90   105   ar
    99    91    92    1
   100    91    93    1
   101    94    95    1
   102    94    96    1
   103    94   198    1
   104    97    98    1
   105    98    99    2
   106    98   101    1
   107    99   100    1
   108   101   102    1
   109   103   108    1
   110   103   111    1
   111   103   114   am
   112   104   114    2
   113   105   106    1
   114   105   107   ar
   115   107   108    1
   116   108   109    1
   117   108   110    1
   118   111   112    1
   119   111   113    1
   120   111   130    1
   121   114   115    1
   122   115   116    2
   123   115   120    1
   124   116   117    1
   125   118   119    1
   126   118   120    2
   127   120   121    1
   128   122   127    1
   129   122   130    1
   130   122   133   am
   131   123   133    2
   132   124   125    1
   133   124   126   ar
   134   126   127    1
   135   126   175   ar
   136   127   128    1
   137   127   129    1
   138   130   131    1
   139   130   132    1
   140   133   134    1
   141   134   135    2
   142   134   137    1
   143   135   136    1
   144   137   138    1
   145   139   144    1
   146   139   147    1
   147   139   150   am
   148   140   150    2
   149   141   142    1
   150   141   143   ar
   151   141   194   ar
   152   143   144    1
   153   143   158   ar
   154   144   145    1
   155   144   146    1
   156   147   148    1
   157   147   149    1
   158   150   151    1
   159   151   152    2
   160   151   154    1
   161   152   153    1
   162   154   155    1
   163   156   161    1
   164   156   164    1
   165   156   167   am
   166   157   167    2
   167   158   159    1
   168   158   160   ar
   169   160   161    1
   170   160   192   ar
   171   161   162    1
   172   161   163    1
   173   164   165    1
   174   164   166    1
   175   164   181    1
   176   167   168    1
   177   168   169    2
   178   168   171    1
   179   169   170    1
   180   171   172    1
   181   173   178    1
   182   173   181    1
   183   173   184   am
   184   174   184    2
   185   175   176    1
   186   175   177   ar
   187   177   178    1
   188   178   179    1
   189   178   180    1
   190   181   182    1
   191   181   183    1
   192   184   185    1
   193   185   186    2
   194   185   188    1
   195   186   187    1
   196   188   189    1
   197   190   195    1
   198   190   198    1
   199   190   201   am
   200   191   201    2
   201   192   193    1
   202   192   194   ar
   203   194   195    1
   204   195   196    1
   205   195   197    1
   206   198   199    1
   207   198   200    1
   208   201   202    1
   209   202   203    2
   210   202   207    1
   211   203   204    1
   212   205   206    1
   213   205   207    2
   214   207   208    1
