@<TRIPOS>MOLECULE
*****
 168 180 0 0 0
SMALL
GASTEIGER

@<TRIPOS>ATOM
      1 N1         26.0866   14.8017   28.5819 N.2     1  RES11      -0.2856
      2 N2         25.3038   13.1337   30.7225 N.2     1  RES11      -0.2856
      3 N15        20.7592    7.1614   27.3760 N.2     1  RES11      -0.2856
      4 N16        22.1739    7.6956   29.7546 N.2     1  RES11      -0.2856
      5 N17        28.4912    7.6526   30.5125 N.2     1  RES11      -0.2856
      6 N18        29.9992    6.6559   28.2824 N.2     1  RES11      -0.2856
      7 N19        27.3827    5.2703   22.6623 N.2     1  RES11      -0.2856
      8 N20        24.5145    5.1208   22.6546 N.2     1  RES11      -0.2856
      9 N21        30.8414   10.6735   23.4816 N.2     1  RES11      -0.2856
     10 N22        29.4115   13.1153   23.4304 N.2     1  RES11      -0.2856
     11 N23        21.7764   10.9294   22.3524 N.2     1  RES11      -0.2856
     12 N24        23.1183   13.3568   23.1257 N.2     1  RES11      -0.2856
     13 C73        29.5867    7.7038   26.1854 C.ar    1  RES11      -0.0062
     14 C74        29.8708    8.7435   25.3430 C.ar    1  RES11      -0.0445
     15 H74        30.3412    9.4701   25.6810 H       1  RES11       0.0630
     16 C75        29.4945    8.7681   24.0167 C.ar    1  RES11      -0.0062
     17 C76        28.7686    7.6854   23.5098 C.ar    1  RES11      -0.0445
     18 H76        28.5014    7.6731   22.6187 H       1  RES11       0.0630
     19 C77        28.4465    6.6231   24.3598 C.ar    1  RES11      -0.0062
     20 C78        28.8558    6.6231   25.6579 C.ar    1  RES11      -0.0445
     21 H78        28.6465    5.8986   26.2033 H       1  RES11       0.0630
     22 C79        30.0726    7.6608   27.5347 C.2     1  RES11       0.0297
     23 H79        30.4680    8.4283   27.8778 H       1  RES11       0.0831
     24 C80        29.9150    9.8426   23.1283 C.2     1  RES11       0.0297
     25 H80        29.5137    9.9326   22.2961 H       1  RES11       0.0831
     26 C81        27.6884    5.4340   23.8708 C.2     1  RES11       0.0297
     27 H81        27.4284    4.7872   24.4878 H       1  RES11       0.0831
     28 C82        22.1377    7.2781   25.4275 C.ar    1  RES11      -0.0062
     29 C83        23.0026    6.5740   24.5698 C.ar    1  RES11      -0.0445
     30 H83        23.3048    5.7308   24.8207 H       1  RES11       0.0630
     31 C84        23.4074    7.1123   23.3715 C.ar    1  RES11      -0.0062
     32 C85        22.9223    8.3485   22.9721 C.ar    1  RES11      -0.0445
     33 H85        23.1449    8.6923   22.1348 H       1  RES11       0.0630
     34 C86        22.0942    9.0730   23.8349 C.ar    1  RES11      -0.0062
     35 C87        21.7024    8.5122   25.0025 C.ar    1  RES11      -0.0445
     36 H87        21.1104    8.9850   25.5453 H       1  RES11       0.0630
     37 C88        21.6734    6.6948   26.6821 C.2     1  RES11       0.0297
     38 H88        22.0932    5.9211   26.9817 H       1  RES11       0.0831
     39 C89        24.2089    6.3059   22.4293 C.2     1  RES11       0.0297
     40 H89        24.4985    6.6988   21.6381 H       1  RES11       0.0831
     41 C90        21.5459   10.3788   23.4227 C.2     1  RES11       0.0297
     42 H90        20.9860   10.8189   24.0218 H       1  RES11       0.0831
     43 C91        25.7728   13.8398   26.4286 C.ar    1  RES11      -0.0062
     44 C92        24.8471   13.6024   25.4403 C.ar    1  RES11      -0.0445
     45 H92        23.9400   13.7334   25.6144 H       1  RES11       0.0630
     46 C93        25.2581   13.1644   24.1755 C.ar    1  RES11      -0.0062
     47 C94        26.6040   13.0477   23.9092 C.ar    1  RES11      -0.0445
     48 H94        26.8886   12.7939   23.0617 H       1  RES11       0.0630
     49 C95        27.5363   13.3056   24.9001 C.ar    1  RES11      -0.0062
     50 C96        27.1078   13.7313   26.1342 C.ar    1  RES11      -0.0445
     51 H96        27.7358   13.9503   26.7845 H       1  RES11       0.0630
     52 C97        25.3125   14.3822   27.7140 C.2     1  RES11       0.0297
     53 H97        24.3991   14.4088   27.8829 H       1  RES11       0.0831
     54 C98        24.3362   13.0457   23.0719 C.2     1  RES11       0.0297
     55 H98        24.6645   12.7161   22.2654 H       1  RES11       0.0831
     56 C99        28.9893   13.2421   24.6107 C.2     1  RES11       0.0297
     57 H99        29.5991   13.2954   25.3123 H       1  RES11       0.0831
     58 C100       25.7542   10.8270   30.2462 C.ar    1  RES11      -0.0062
     59 C101       26.6828    9.8426   30.2437 C.ar    1  RES11      -0.0445
     60 H101       27.5609   10.0513   30.4587 H       1  RES11       0.0630
     61 C102       26.3562    8.5286   29.9262 C.ar    1  RES11      -0.0062
     62 C103       25.0590    8.2277   29.6624 C.ar    1  RES11      -0.0445
     63 H103       24.8402    7.3477   29.4627 H       1  RES11       0.0630
     64 C104       24.0106    9.2020   29.6778 C.ar    1  RES11      -0.0062
     65 C105       24.4025   10.5139   29.9851 C.ar    1  RES11      -0.0445
     66 H105       23.7627   11.1873   30.0158 H       1  RES11       0.0630
     67 C106       26.1230   12.1983   30.6200 C.2     1  RES11       0.0297
     68 H106       27.0185   12.3805   30.7941 H       1  RES11       0.0831
     69 C107       27.3683    7.4786   30.0107 C.2     1  RES11       0.0297
     70 H107       27.1586    6.6374   29.6752 H       1  RES11       0.0831
     71 C108       22.5942    8.8602   29.5677 C.2     1  RES11       0.0297
     72 H108       21.9835    9.5294   29.3552 H       1  RES11       0.0831
     73 C109       29.4039    6.5290   30.6098 C.3     1  RES11       0.0730
     74 H109       28.9370    5.6898   30.4178 H       1  RES11       0.0565
     75 C110       29.9911    6.5024   32.0359 C.3     1  RES11      -0.0286
     76 H11A       30.4140    7.3558   32.2280 H       1  RES11       0.0286
     77 H11B       29.2748    6.3714   32.6786 H       1  RES11       0.0286
     78 C111       31.0071    5.4012   32.1896 C.3     1  RES11      -0.0510
     79 H11C       30.5815    4.5375   32.0641 H       1  RES11       0.0266
     80 H11D       31.3928    5.4258   33.0806 H       1  RES11       0.0266
     81 C112       32.1137    5.6018   31.1347 C.3     1  RES11      -0.0510
     82 H11E       32.5811    6.4328   31.3216 H       1  RES11       0.0266
     83 H11F       32.7545    4.8773   31.2038 H       1  RES11       0.0266
     84 C113       31.5766    5.6468   29.7521 C.3     1  RES11      -0.0286
     85 H11G       31.1624    4.7954   29.5395 H       1  RES11       0.0286
     86 H11H       32.3049    5.7922   29.1273 H       1  RES11       0.0286
     87 C114       30.5602    6.7459   29.6035 C.3     1  RES11       0.0730
     88 H114       30.9778    7.6199   29.7418 H       1  RES11       0.0565
     89 C115       31.2277   11.7460   22.5598 C.3     1  RES11       0.0730
     90 H115       30.7575   11.6560   21.7021 H       1  RES11       0.0565
     91 C116       32.7023   11.6805   22.3678 C.3     1  RES11      -0.0286
     92 H11I       32.9475   10.8414   21.9479 H       1  RES11       0.0286
     93 H11J       33.1520   11.7358   23.2255 H       1  RES11       0.0286
     94 C117       33.1348   12.8758   21.4589 C.3     1  RES11      -0.0510
     95 H11K       34.0930   12.8451   21.3180 H       1  RES11       0.0266
     96 H11L       32.6990   12.8001   20.5960 H       1  RES11       0.0266
     97 C118       32.7608   14.1939   22.0990 C.3     1  RES11      -0.0510
     98 H11M       33.2396   14.3003   22.9362 H       1  RES11       0.0266
     99 H11N       33.0045   14.9245   21.5126 H       1  RES11       0.0266
    100 C119       31.2801   14.2205   22.3576 C.3     1  RES11      -0.0286
    101 H11O       30.8054   14.1673   21.5126 H       1  RES11       0.0286
    102 H11P       31.0412   15.0596   22.7826 H       1  RES11       0.0286
    103 C120       30.8628   13.0661   23.2486 C.3     1  RES11       0.0730
    104 H120       31.3150   13.1296   24.1166 H       1  RES11       0.0565
    105 C121       22.3325   13.2544   21.9428 C.3     1  RES11       0.0730
    106 H121       22.9048   12.9536   21.2079 H       1  RES11       0.0565
    107 C122       21.7710   14.6400   21.5997 C.3     1  RES11      -0.0286
    108 H12A       21.2711   14.9859   22.3576 H       1  RES11       0.0286
    109 H12B       22.4995   15.2520   21.4153 H       1  RES11       0.0286
    110 C123       20.8592   14.5500   20.3860 C.3     1  RES11      -0.0510
    111 H12C       20.4976   15.4301   20.1915 H       1  RES11       0.0266
    112 H12D       21.3771   14.2635   19.6179 H       1  RES11       0.0266
    113 C124       19.7347   13.5921   20.6037 C.3     1  RES11      -0.0510
    114 H12E       19.1916   13.5389   19.8023 H       1  RES11       0.0266
    115 H12F       19.1700   13.9094   21.3283 H       1  RES11       0.0266
    116 C125       20.2760   12.2229   20.9442 C.3     1  RES11      -0.0286
    117 H12G       19.5396   11.6253   21.1414 H       1  RES11       0.0286
    118 H12H       20.7498   11.8668   20.1761 H       1  RES11       0.0286
    119 C126       21.2015   12.2700   22.1194 C.3     1  RES11       0.0730
    120 H126       20.6849   12.5299   22.9106 H       1  RES11       0.0565
    121 C127       20.3919    6.5392   28.6075 C.3     1  RES11       0.0730
    122 H127       20.8971    5.7062   28.7151 H       1  RES11       0.0565
    123 C128       18.9244    6.2383   28.6485 C.3     1  RES11      -0.0286
    124 H12I       18.4276    7.0550   28.4872 H       1  RES11       0.0286
    125 H12J       18.7084    5.6121   27.9393 H       1  RES11       0.0286
    126 C129       18.4998    5.6612   29.9518 C.3     1  RES11      -0.0510
    127 H12K       18.9729    4.8302   30.1131 H       1  RES11       0.0266
    128 H12L       17.5495    5.4708   29.9313 H       1  RES11       0.0266
    129 C130       18.7991    6.6293   31.0451 C.3     1  RES11      -0.0510
    130 H13A       18.5042    6.2649   31.8951 H       1  RES11       0.0266
    131 H13B       18.3188    7.4582   30.8889 H       1  RES11       0.0266
    132 C131       20.3397    6.9117   31.0937 C.3     1  RES11      -0.0286
    133 H13C       20.5452    7.5339   31.8081 H       1  RES11       0.0286
    134 H13D       20.8262    6.0869   31.2576 H       1  RES11       0.0286
    135 C132       20.7590    7.5073   29.7393 C.3     1  RES11       0.0730
    136 H132       20.3106    8.3669   29.6035 H       1  RES11       0.0565
    137 C133       26.6467    4.0177   22.3755 C.3     1  RES11       0.0730
    138 H133       26.4577    3.5490   23.2153 H       1  RES11       0.0565
    139 C134       27.4638    3.1376   21.4845 C.3     1  RES11      -0.0286
    140 H13E       28.2864    2.8940   21.9351 H       1  RES11       0.0286
    141 H13F       27.6940    3.6227   20.6754 H       1  RES11       0.0286
    142 C135       26.6750    1.8543   21.1081 C.3     1  RES11      -0.0510
    143 H13G       27.2183    1.2833   20.5422 H       1  RES11       0.0266
    144 H13H       26.4453    1.3590   21.9121 H       1  RES11       0.0266
    145 C136       25.4591    2.2534   20.4014 C.3     1  RES11      -0.0510
    146 H13I       24.9570    1.4613   20.1505 H       1  RES11       0.0266
    147 H13J       25.7000    2.7242   19.5872 H       1  RES11       0.0266
    148 C137       24.5892    3.1560   21.2771 C.3     1  RES11      -0.0286
    149 H13K       23.7871    3.4016   20.7880 H       1  RES11       0.0286
    150 H13L       24.3166    2.6669   22.0682 H       1  RES11       0.0286
    151 C138       25.3173    4.3943   21.6867 C.3     1  RES11       0.0730
    152 H138       25.4907    4.9571   20.9058 H       1  RES11       0.0565
    153 C139       25.4906   15.3646   29.7956 C.3     1  RES11       0.0730
    154 H139       24.5186   15.3953   29.6804 H       1  RES11       0.0565
    155 C140       25.9865   16.7584   30.0414 C.3     1  RES11      -0.0286
    156 H14A       25.7509   17.3192   29.2861 H       1  RES11       0.0286
    157 H14B       26.9555   16.7461   30.1156 H       1  RES11       0.0286
    158 C141       25.3925   17.3437   31.3062 C.3     1  RES11      -0.0510
    159 H14C       25.7874   18.2136   31.4701 H       1  RES11       0.0266
    160 H14D       24.4381   17.4665   31.1833 H       1  RES11       0.0266
    161 C142       25.6229   16.4739   32.4866 C.3     1  RES11      -0.0510
    162 H14E       25.1297   16.8239   33.2445 H       1  RES11       0.0266
    163 H14F       26.5676   16.4821   32.7145 H       1  RES11       0.0266
    164 C143       25.1865   15.0453   32.2203 C.3     1  RES11      -0.0286
    165 H14G       25.4110   14.4968   32.9859 H       1  RES11       0.0286
    166 H14H       24.2240   15.0248   32.1128 H       1  RES11       0.0286
    167 C144       25.8119   14.4722   31.0195 C.3     1  RES11       0.0730
    168 H144       26.7830   14.4313   31.1449 H       1  RES11       0.0565
@<TRIPOS>BOND
     1     1    52    2
     2     1   153    1
     3     2    67    2
     4     2   167    1
     5     3    37    2
     6     3   121    1
     7     4    71    2
     8     4   135    1
     9     5    69    2
    10     5    73    1
    11     6    22    2
    12     6    87    1
    13     7    26    2
    14     7   137    1
    15     8    39    2
    16     8   151    1
    17     9    24    2
    18     9    89    1
    19    10    56    2
    20    10   103    1
    21    11    41    2
    22    11   119    1
    23    12    54    2
    24    12   105    1
    25    13    14   ar
    26    13    20   ar
    27    13    22    1
    28    14    15    1
    29    14    16   ar
    30    16    17   ar
    31    16    24    1
    32    17    18    1
    33    17    19   ar
    34    19    20   ar
    35    19    26    1
    36    20    21    1
    37    22    23    1
    38    24    25    1
    39    26    27    1
    40    28    29   ar
    41    28    35   ar
    42    28    37    1
    43    29    30    1
    44    29    31   ar
    45    31    32   ar
    46    31    39    1
    47    32    33    1
    48    32    34   ar
    49    34    35   ar
    50    34    41    1
    51    35    36    1
    52    37    38    1
    53    39    40    1
    54    41    42    1
    55    43    44   ar
    56    43    50   ar
    57    43    52    1
    58    44    45    1
    59    44    46   ar
    60    46    47   ar
    61    46    54    1
    62    47    48    1
    63    47    49   ar
    64    49    50   ar
    65    49    56    1
    66    50    51    1
    67    52    53    1
    68    54    55    1
    69    56    57    1
    70    58    59   ar
    71    58    65   ar
    72    58    67    1
    73    59    60    1
    74    59    61   ar
    75    61    62   ar
    76    61    69    1
    77    62    63    1
    78    62    64   ar
    79    64    65   ar
    80    64    71    1
    81    65    66    1
    82    67    68    1
    83    69    70    1
    84    71    72    1
    85    73    74    1
    86    73    75    1
    87    73    87    1
    88    75    76    1
    89    75    77    1
    90    75    78    1
    91    78    79    1
    92    78    80    1
    93    78    81    1
    94    81    82    1
    95    81    83    1
    96    81    84    1
    97    84    85    1
    98    84    86    1
    99    84    87    1
   100    87    88    1
   101    89    90    1
   102    89    91    1
   103    89   103    1
   104    91    92    1
   105    91    93    1
   106    91    94    1
   107    94    95    1
   108    94    96    1
   109    94    97    1
   110    97    98    1
   111    97    99    1
   112    97   100    1
   113   100   101    1
   114   100   102    1
   115   100   103    1
   116   103   104    1
   117   105   106    1
   118   105   107    1
   119   105   119    1
   120   107   108    1
   121   107   109    1
   122   107   110    1
   123   110   111    1
   124   110   112    1
   125   110   113    1
   126   113   114    1
   127   113   115    1
   128   113   116    1
   129   116   117    1
   130   116   118    1
   131   116   119    1
   132   119   120    1
   133   121   122    1
   134   121   123    1
   135   121   135    1
   136   123   124    1
   137   123   125    1
   138   123   126    1
   139   126   127    1
   140   126   128    1
   141   126   129    1
   142   129   130    1
   143   129   131    1
   144   129   132    1
   145   132   133    1
   146   132   134    1
   147   132   135    1
   148   135   136    1
   149   137   138    1
   150   137   139    1
   151   137   151    1
   152   139   140    1
   153   139   141    1
   154   139   142    1
   155   142   143    1
   156   142   144    1
   157   142   145    1
   158   145   146    1
   159   145   147    1
   160   145   148    1
   161   148   149    1
   162   148   150    1
   163   148   151    1
   164   151   152    1
   165   153   154    1
   166   153   155    1
   167   153   167    1
   168   155   156    1
   169   155   157    1
   170   155   158    1
   171   158   159    1
   172   158   160    1
   173   158   161    1
   174   161   162    1
   175   161   163    1
   176   161   164    1
   177   164   165    1
   178   164   166    1
   179   164   167    1
   180   167   168    1
