@<TRIPOS>MOLECULE
*****
 168 180 0 0 0
SMALL
GASTEIGER

@<TRIPOS>ATOM
      1 N1          9.5199    5.1551   14.6910 N.2     1  RES11      -0.2856
      2 N2          8.1242    4.4320   12.2596 N.2     1  RES11      -0.2856
      3 N3         11.5556    2.5786    7.1090 N.2     1  RES11      -0.2856
      4 N4          8.0500    7.8013    6.8576 N.2     1  RES11      -0.2856
      5 C1         11.5456    8.1715   14.6160 C.ar    1  RES11      -0.0445
      6 H1         10.8540    8.7944   14.6248 H       1  RES11       0.0630
      7 C2         11.2425    6.8408   14.6094 C.ar    1  RES11      -0.0062
      8 C3          9.8606    6.3769   14.5984 C.2     1  RES11       0.0297
      9 H3          9.1867    7.0129   14.5179 H       1  RES11       0.0831
     10 C4          8.0852    4.8262   14.6304 C.3     1  RES11       0.0730
     11 H4          7.5759    5.6342   14.4098 H       1  RES11       0.0565
     12 C5          7.8702    3.7917   13.5552 C.3     1  RES11       0.0730
     13 H5          8.4913    3.0425   13.6832 H       1  RES11       0.0565
     14 C6          6.4405    3.2799   13.5321 C.3     1  RES11      -0.0286
     15 H6A         6.3638    2.5590   12.8881 H       1  RES11       0.0286
     16 H6B         5.8470    3.9943   13.2553 H       1  RES11       0.0286
     17 C7          6.0180    2.7703   14.9270 C.3     1  RES11      -0.0510
     18 H7A         5.0862    2.4981   14.9071 H       1  RES11       0.0266
     19 H7B         6.5524    2.0015   15.1707 H       1  RES11       0.0266
     20 C8          6.1991    3.8418   15.9260 C.3     1  RES11      -0.0510
     21 H8A         5.9325    3.5151   16.7993 H       1  RES11       0.0266
     22 H8B         5.6269    4.5932   15.7000 H       1  RES11       0.0266
     23 C9          7.6539    4.3144   15.9856 C.3     1  RES11      -0.0286
     24 H9A         7.7419    5.0201   16.6450 H       1  RES11       0.0286
     25 H9B         8.2260    3.5761   16.2535 H       1  RES11       0.0286
     26 C10         8.9415    3.9311   11.4635 C.2     1  RES11       0.0297
     27 H10         9.4004    3.1623   11.7138 H       1  RES11       0.0831
     28 C11         9.2055    4.5235   10.1347 C.ar    1  RES11      -0.0062
     29 C12        10.0455    3.8919    9.2327 C.ar    1  RES11      -0.0445
     30 H12        10.4667    3.1013    9.4842 H       1  RES11       0.0630
     31 C13        10.2781    4.4081    7.9569 C.ar    1  RES11      -0.0062
     32 C14         9.6494    5.5929    7.6228 C.ar    1  RES11      -0.0445
     33 H14         9.8179    5.9762    6.7914 H       1  RES11       0.0630
     34 C15         8.7742    6.2288    8.4939 C.ar    1  RES11      -0.0062
     35 C16         8.5643    5.6865    9.7389 C.ar    1  RES11      -0.0445
     36 H16         7.9821    6.1069   10.3288 H       1  RES11       0.0630
     37 C17        11.1093    3.7395    6.9711 C.2     1  RES11       0.0297
     38 H17        11.3180    4.2012    6.1915 H       1  RES11       0.0831
     39 C18        12.3302    2.0342    5.9953 C.3     1  RES11       0.0730
     40 H18        12.3566    2.6854    5.2642 H       1  RES11       0.0565
     41 C19        11.7392    0.7536    5.5013 C.3     1  RES11      -0.0286
     42 H19A       10.8527    0.9300    5.1473 H       1  RES11       0.0286
     43 H19B       11.6462    0.1394    6.2456 H       1  RES11       0.0286
     44 C20         8.0160    7.4201    8.0429 C.2     1  RES11       0.0297
     45 H20         7.5043    7.8927    8.6582 H       1  RES11       0.0831
     46 C21         7.2490    8.9752    6.5113 C.3     1  RES11       0.0730
     47 H21         6.7586    9.2888    7.2997 H       1  RES11       0.0565
     48 C22         6.2607    8.5526    5.4175 C.3     1  RES11      -0.0286
     49 H22A        6.7460    8.1737    4.6676 H       1  RES11       0.0286
     50 H22B        5.6621    7.8731    5.7637 H       1  RES11       0.0286
     51 C23         5.4547    9.7527    4.9488 C.3     1  RES11      -0.0510
     52 H23A        4.8385    9.4739    4.2541 H       1  RES11       0.0266
     53 H23B        4.9379   10.1033    5.6898 H       1  RES11       0.0266
     54 C24         6.3625   10.8286    4.4151 C.3     1  RES11      -0.0510
     55 H24A        5.8382   11.5974    4.1450 H       1  RES11       0.0266
     56 H24B        6.8416   10.4997    3.6377 H       1  RES11       0.0266
     57 N1         15.9239    5.6669   14.6910 N.2     1  RES11      -0.2856
     58 N2         17.2480    4.8197   12.2596 N.2     1  RES11      -0.2856
     59 N3         17.1373    8.7182    7.1090 N.2     1  RES11      -0.2856
     60 N4         14.3672    3.0708    6.8576 N.2     1  RES11      -0.2856
     61 C1         12.2988    5.9130   14.6160 C.ar    1  RES11      -0.0445
     62 H1         12.1051    5.0027   14.6248 H       1  RES11       0.0630
     63 C2         13.6027    6.3159   14.6094 C.ar    1  RES11      -0.0062
     64 C3         14.6954    5.3511   14.5984 C.2     1  RES11       0.0297
     65 H3         14.4816    4.4495   14.5179 H       1  RES11       0.0831
     66 C4         16.9261    4.5888   14.6304 C.3     1  RES11       0.0730
     67 H4         16.4809    3.7438   14.4098 H       1  RES11       0.0565
     68 C5         17.9295    4.9199   13.5552 C.3     1  RES11       0.0730
     69 H5         18.2677    5.8324   13.6832 H       1  RES11       0.0565
     70 C6         19.0876    3.9377   13.5321 C.3     1  RES11      -0.0286
     71 H6A        19.7502    4.2317   12.8881 H       1  RES11       0.0286
     72 H6B        18.7657    3.0665   13.2553 H       1  RES11       0.0286
     73 C7         19.7402    3.8266   14.9270 C.3     1  RES11      -0.0510
     74 H7A        20.4418    3.1558   14.9071 H       1  RES11       0.0266
     75 H7B        20.1388    4.6738   15.1707 H       1  RES11       0.0266
     76 C8         18.7217    3.4476   15.9260 C.3     1  RES11      -0.0510
     77 H8A        19.1379    3.3801   16.7993 H       1  RES11       0.0266
     78 H8B        18.3570    2.5765   15.7000 H       1  RES11       0.0266
     79 C9         17.5849    4.4712   15.9856 C.3     1  RES11      -0.0286
     80 H9A        16.9298    4.1946   16.6450 H       1  RES11       0.0286
     81 H9B        17.9383    5.3359   16.2535 H       1  RES11       0.0286
     82 C10        17.2731    5.7780   11.4635 C.2     1  RES11       0.0297
     83 H10        17.7094    6.5599   11.7138 H       1  RES11       0.0831
     84 C11        16.6281    5.7105   10.1347 C.ar    1  RES11      -0.0062
     85 C12        16.7551    6.7537    9.2327 C.ar    1  RES11      -0.0445
     86 H12        17.2291    7.5138    9.4842 H       1  RES11       0.0630
     87 C13        16.1917    6.6971    7.9569 C.ar    1  RES11      -0.0062
     88 C14        15.4800    5.5602    7.6228 C.ar    1  RES11      -0.0445
     89 H14        15.0638    5.5145    6.7914 H       1  RES11       0.0630
     90 C15        15.3669    4.4843    8.4939 C.ar    1  RES11      -0.0062
     91 C16        15.9415    4.5736    9.7389 C.ar    1  RES11      -0.0445
     92 H16        15.8686    3.8593   10.3288 H       1  RES11       0.0630
     93 C17        16.3552    7.7512    6.9711 C.2     1  RES11       0.0297
     94 H17        15.8510    7.7011    6.1915 H       1  RES11       0.0831
     95 C18        17.2216    9.6612    5.9953 C.3     1  RES11       0.0730
     96 H18        16.6444    9.3585    5.2642 H       1  RES11       0.0565
     97 C19        18.6261    9.7897    5.5013 C.3     1  RES11      -0.0286
     98 H19A       18.9166    8.9338    5.1473 H       1  RES11       0.0286
     99 H19B       19.2045   10.0162    6.2456 H       1  RES11       0.0286
    100 C20        14.7143    3.2320    8.0429 C.2     1  RES11       0.0297
    101 H20        14.5609    2.5525    8.6582 H       1  RES11       0.0831
    102 C21        13.7511    1.7902    6.5113 C.3     1  RES11       0.0730
    103 H21        13.7247    1.2087    7.2997 H       1  RES11       0.0565
    104 C22        14.6112    1.1456    5.4175 C.3     1  RES11      -0.0286
    105 H22A       14.6967    1.7554    4.6676 H       1  RES11       0.0286
    106 H22B       15.4989    0.9670    5.7637 H       1  RES11       0.0286
    107 C23        13.9749   -0.1525    4.9488 C.3     1  RES11      -0.0510
    108 H23A       14.5244   -0.5467    4.2541 H       1  RES11       0.0266
    109 H23B       13.9296   -0.7753    5.6898 H       1  RES11       0.0266
    110 C24        12.5892    0.0958    4.4151 C.3     1  RES11      -0.0510
    111 H24A       12.1856   -0.7427    4.1450 H       1  RES11       0.0266
    112 H24B       12.6345    0.6752    3.6377 H       1  RES11       0.0266
    113 N1         12.2787   10.9570   14.6910 N.2     1  RES11      -0.2856
    114 N2         12.3503   12.5273   12.2596 N.2     1  RES11      -0.2856
    115 N3          9.0295   10.4823    7.1090 N.2     1  RES11      -0.2856
    116 N4         15.3053   10.9070    6.8576 N.2     1  RES11      -0.2856
    117 C1         13.8781    7.6945   14.6160 C.ar    1  RES11      -0.0445
    118 H1         14.7633    7.9820   14.6248 H       1  RES11       0.0630
    119 C2         12.8772    8.6223   14.6094 C.ar    1  RES11      -0.0062
    120 C3         13.1664   10.0510   14.5984 C.2     1  RES11       0.0297
    121 H3         14.0541   10.3167   14.5179 H       1  RES11       0.0831
    122 C4         12.7112   12.3640   14.6304 C.3     1  RES11       0.0730
    123 H4         13.6656   12.4010   14.4098 H       1  RES11       0.0565
    124 C5         11.9228   13.0674   13.5552 C.3     1  RES11       0.0730
    125 H5         10.9634   12.9041   13.6832 H       1  RES11       0.0565
    126 C6         12.1944   14.5615   13.5321 C.3     1  RES11      -0.0286
    127 H6A        11.6085   14.9884   12.8881 H       1  RES11       0.0286
    128 H6B        13.1098   14.7183   13.2553 H       1  RES11       0.0286
    129 C7         11.9643   15.1822   14.9270 C.3     1  RES11      -0.0510
    130 H7A        12.1944   16.1252   14.9071 H       1  RES11       0.0266
    131 H7B        11.0313   15.1038   15.1707 H       1  RES11       0.0266
    132 C8         12.8017   14.4896   15.9260 C.3     1  RES11      -0.0510
    133 H8A        12.6521   14.8838   16.7993 H       1  RES11       0.0266
    134 H8B        13.7385   14.6094   15.7000 H       1  RES11       0.0266
    135 C9         12.4836   12.9934   15.9856 C.3     1  RES11      -0.0286
    136 H9A        13.0507   12.5643   16.6450 H       1  RES11       0.0286
    137 H9B        11.5582   12.8671   16.2535 H       1  RES11       0.0286
    138 C10        11.5079   12.0700   11.4635 C.2     1  RES11       0.0297
    139 H10        10.6126   12.0569   11.7138 H       1  RES11       0.0831
    140 C11        11.8889   11.5451   10.1347 C.ar    1  RES11      -0.0062
    141 C12        10.9219   11.1335    9.2327 C.ar    1  RES11      -0.0445
    142 H12        10.0266   11.1639    9.4842 H       1  RES11       0.0630
    143 C13        11.2526   10.6739    7.9569 C.ar    1  RES11      -0.0062
    144 C14        12.5930   10.6260    7.6228 C.ar    1  RES11      -0.0445
    145 H14        12.8407   10.2884    6.7914 H       1  RES11       0.0630
    146 C15        13.5813   11.0659    8.4939 C.ar    1  RES11      -0.0062
    147 C16        13.2167   11.5189    9.7389 C.ar    1  RES11      -0.0445
    148 H16        13.8718   11.8130   10.3288 H       1  RES11       0.0630
    149 C17        10.2580   10.2884    6.9711 C.2     1  RES11       0.0297
    150 H17        10.5535    9.8768    6.1915 H       1  RES11       0.0831
    151 C18         8.1707   10.0837    5.9953 C.3     1  RES11       0.0730
    152 H18         8.7214    9.7352    5.2642 H       1  RES11       0.0565
    153 C19         7.3571   11.2358    5.5013 C.3     1  RES11      -0.0286
    154 H19A        7.9531   11.9153    5.1473 H       1  RES11       0.0286
    155 H19B        6.8718   11.6235    6.2456 H       1  RES11       0.0286
    156 C20        14.9922   11.1269    8.0429 C.2     1  RES11       0.0297
    157 H20        15.6573   11.3338    8.6582 H       1  RES11       0.0831
    158 C21        16.7224   11.0137    6.5113 C.3     1  RES11       0.0730
    159 H21        17.2392   11.2816    7.2997 H       1  RES11       0.0565
    160 C22        16.8506   12.0808    5.4175 C.3     1  RES11      -0.0286
    161 H22A       16.2798   11.8500    4.6676 H       1  RES11       0.0286
    162 H22B       16.5614   12.9389    5.7637 H       1  RES11       0.0286
    163 C23        18.2929   12.1789    4.9488 C.3     1  RES11      -0.0510
    164 H23A       18.3595   12.8518    4.2541 H       1  RES11       0.0266
    165 H23B       18.8549   12.4511    5.6898 H       1  RES11       0.0266
    166 C24        18.7707   10.8547    4.4151 C.3     1  RES11      -0.0510
    167 H24A       19.6987   10.9244    4.1450 H       1  RES11       0.0266
    168 H24B       18.2463   10.6042    3.6377 H       1  RES11       0.0266
@<TRIPOS>BOND
     1     1     8    2
     2     1    10    1
     3     2    12    1
     4     2    26    2
     5     3    37    2
     6     3    39    1
     7     4    44    2
     8     4    46    1
     9     5     6    1
    10     5     7   ar
    11     5   119   ar
    12     7     8    1
    13     7    61   ar
    14     8     9    1
    15    10    11    1
    16    10    12    1
    17    10    23    1
    18    12    13    1
    19    12    14    1
    20    14    15    1
    21    14    16    1
    22    14    17    1
    23    17    18    1
    24    17    19    1
    25    17    20    1
    26    20    21    1
    27    20    22    1
    28    20    23    1
    29    23    24    1
    30    23    25    1
    31    26    27    1
    32    26    28    1
    33    28    29   ar
    34    28    35   ar
    35    29    30    1
    36    29    31   ar
    37    31    32   ar
    38    31    37    1
    39    32    33    1
    40    32    34   ar
    41    34    35   ar
    42    34    44    1
    43    35    36    1
    44    37    38    1
    45    39    40    1
    46    39    41    1
    47    39   102    1
    48    41    42    1
    49    41    43    1
    50    41   110    1
    51    44    45    1
    52    46    47    1
    53    46    48    1
    54    46   151    1
    55    48    49    1
    56    48    50    1
    57    48    51    1
    58    51    52    1
    59    51    53    1
    60    51    54    1
    61    54    55    1
    62    54    56    1
    63    54   153    1
    64    57    64    2
    65    57    66    1
    66    58    68    1
    67    58    82    2
    68    59    93    2
    69    59    95    1
    70    60   100    2
    71    60   102    1
    72    61    62    1
    73    61    63   ar
    74    63    64    1
    75    63   117   ar
    76    64    65    1
    77    66    67    1
    78    66    68    1
    79    66    79    1
    80    68    69    1
    81    68    70    1
    82    70    71    1
    83    70    72    1
    84    70    73    1
    85    73    74    1
    86    73    75    1
    87    73    76    1
    88    76    77    1
    89    76    78    1
    90    76    79    1
    91    79    80    1
    92    79    81    1
    93    82    83    1
    94    82    84    1
    95    84    85   ar
    96    84    91   ar
    97    85    86    1
    98    85    87   ar
    99    87    88   ar
   100    87    93    1
   101    88    89    1
   102    88    90   ar
   103    90    91   ar
   104    90   100    1
   105    91    92    1
   106    93    94    1
   107    95    96    1
   108    95    97    1
   109    95   158    1
   110    97    98    1
   111    97    99    1
   112    97   166    1
   113   100   101    1
   114   102   103    1
   115   102   104    1
   116   104   105    1
   117   104   106    1
   118   104   107    1
   119   107   108    1
   120   107   109    1
   121   107   110    1
   122   110   111    1
   123   110   112    1
   124   113   120    2
   125   113   122    1
   126   114   124    1
   127   114   138    2
   128   115   149    2
   129   115   151    1
   130   116   156    2
   131   116   158    1
   132   117   118    1
   133   117   119   ar
   134   119   120    1
   135   120   121    1
   136   122   123    1
   137   122   124    1
   138   122   135    1
   139   124   125    1
   140   124   126    1
   141   126   127    1
   142   126   128    1
   143   126   129    1
   144   129   130    1
   145   129   131    1
   146   129   132    1
   147   132   133    1
   148   132   134    1
   149   132   135    1
   150   135   136    1
   151   135   137    1
   152   138   139    1
   153   138   140    1
   154   140   141   ar
   155   140   147   ar
   156   141   142    1
   157   141   143   ar
   158   143   144   ar
   159   143   149    1
   160   144   145    1
   161   144   146   ar
   162   146   147   ar
   163   146   156    1
   164   147   148    1
   165   149   150    1
   166   151   152    1
   167   151   153    1
   168   153   154    1
   169   153   155    1
   170   156   157    1
   171   158   159    1
   172   158   160    1
   173   160   161    1
   174   160   162    1
   175   160   163    1
   176   163   164    1
   177   163   165    1
   178   163   166    1
   179   166   167    1
   180   166   168    1
