@<TRIPOS>MOLECULE
*****
 150 162 0 0 0
SMALL
GASTEIGER

@<TRIPOS>ATOM
      1 N1         10.9259    5.6338   13.0931 N.2     1  RES11      -0.2856
      2 C1         10.7028    2.8412   15.4082 C.ar    1  RES11      -0.0445
      3 H1         11.4446    3.0569   15.9294 H       1  RES11       0.0630
      4 C4         11.8810    6.7005   12.8361 C.3     1  RES11       0.0730
      5 H4         12.6519    6.5890   13.4325 H       1  RES11       0.0565
      6 C2         10.3853    3.6218   14.3125 C.ar    1  RES11      -0.0062
      7 C3         11.2265    4.7732   13.9804 C.2     1  RES11       0.0297
      8 H3         12.0240    4.8823   14.4434 H       1  RES11       0.0831
      9 C5         11.3186    8.0750   13.0155 C.3     1  RES11      -0.0285
     10 H5A        10.3828    8.0968   12.7658 H       1  RES11       0.0286
     11 H5B        11.4010    8.3611   13.9416 H       1  RES11       0.0286
     12 C6         12.1210    8.9623   12.1210 C.3     1  RES11      -0.0491
     13 H6A        12.7077    9.5295   12.6471 H       1  RES11       0.0267
     14 N1         13.3161    5.6338   11.1489 N.2     1  RES11      -0.2856
     15 C1         13.5392    2.8412    8.8338 C.ar    1  RES11      -0.0445
     16 H1         12.7974    3.0569    8.3126 H       1  RES11       0.0630
     17 C4         12.3610    6.7005   11.4059 C.3     1  RES11       0.0730
     18 H4         11.5901    6.5890   10.8095 H       1  RES11       0.0565
     19 C2         13.8567    3.6218    9.9295 C.ar    1  RES11      -0.0062
     20 C3         13.0155    4.7732   10.2616 C.2     1  RES11       0.0297
     21 H3         12.2180    4.8823    9.7986 H       1  RES11       0.0831
     22 C5         12.9234    8.0750   11.2265 C.3     1  RES11      -0.0285
     23 H5A        13.8592    8.0968   11.4762 H       1  RES11       0.0286
     24 H5B        12.8410    8.3611   10.3004 H       1  RES11       0.0286
     25 H6A        11.5343    9.5295   11.5949 H       1  RES11       0.0267
     26 N1         11.1489    1.1951   17.7548 N.2     1  RES11      -0.2856
     27 C1          8.8338    1.4182   14.9622 C.ar    1  RES11      -0.0445
     28 H1          8.3126    0.6764   15.1779 H       1  RES11       0.0630
     29 C4         11.4059    0.2400   18.8215 C.3     1  RES11       0.0730
     30 H4         10.8095   -0.5309   18.7100 H       1  RES11       0.0565
     31 C2          9.9295    1.7357   15.7428 C.ar    1  RES11      -0.0062
     32 C3         10.2616    0.8945   16.8942 C.2     1  RES11       0.0297
     33 H3          9.7986    0.0970   17.0033 H       1  RES11       0.0831
     34 C5         11.2265    0.8024   20.1960 C.3     1  RES11      -0.0285
     35 H5A        11.4762    1.7382   20.2178 H       1  RES11       0.0286
     36 H5B        10.3004    0.7200   20.4821 H       1  RES11       0.0286
     37 C6         12.1210    0.0000   21.0833 C.3     1  RES11      -0.0491
     38 H6A        11.5949   -0.5867   21.6505 H       1  RES11       0.0267
     39 N1          6.4872    0.9721   13.3161 N.2     1  RES11      -0.2856
     40 C1          9.2798    3.2872   13.5392 C.ar    1  RES11      -0.0445
     41 H1          9.0641    3.8084   12.7974 H       1  RES11       0.0630
     42 C4          5.4205    0.7151   12.3610 C.3     1  RES11       0.0730
     43 H4          5.5320    1.3115   11.5901 H       1  RES11       0.0565
     44 C2          8.4992    2.1915   13.8567 C.ar    1  RES11      -0.0062
     45 C3          7.3478    1.8594   13.0155 C.2     1  RES11       0.0297
     46 H3          7.2387    2.3224   12.2180 H       1  RES11       0.0831
     47 C5          4.0460    0.8945   12.9234 C.3     1  RES11      -0.0285
     48 H5A         4.0242    0.6448   13.8592 H       1  RES11       0.0286
     49 H5B         3.7599    1.8206   12.8410 H       1  RES11       0.0286
     50 C6          3.1587    0.0000   12.1210 C.3     1  RES11      -0.0491
     51 H6A         2.5915    0.5261   11.5343 H       1  RES11       0.0267
     52 N1         13.0931   -1.1951   17.7548 N.2     1  RES11      -0.2856
     53 C1         15.4082   -1.4182   14.9622 C.ar    1  RES11      -0.0445
     54 H1         15.9294   -0.6764   15.1779 H       1  RES11       0.0630
     55 C4         12.8361   -0.2400   18.8215 C.3     1  RES11       0.0730
     56 H4         13.4325    0.5309   18.7100 H       1  RES11       0.0565
     57 C2         14.3125   -1.7357   15.7428 C.ar    1  RES11      -0.0062
     58 C3         13.9804   -0.8945   16.8942 C.2     1  RES11       0.0297
     59 H3         14.4434   -0.0970   17.0033 H       1  RES11       0.0831
     60 C5         13.0155   -0.8024   20.1960 C.3     1  RES11      -0.0285
     61 H5A        12.7658   -1.7382   20.2178 H       1  RES11       0.0286
     62 H5B        13.9416   -0.7200   20.4821 H       1  RES11       0.0286
     63 H6A        12.6471    0.5867   21.6505 H       1  RES11       0.0267
     64 N1         13.0931    1.1951    6.4872 N.2     1  RES11      -0.2856
     65 C1         15.4082    1.4182    9.2798 C.ar    1  RES11      -0.0445
     66 H1         15.9294    0.6764    9.0641 H       1  RES11       0.0630
     67 C4         12.8361    0.2400    5.4205 C.3     1  RES11       0.0730
     68 H4         13.4325   -0.5309    5.5320 H       1  RES11       0.0565
     69 C2         14.3125    1.7357    8.4992 C.ar    1  RES11      -0.0062
     70 C3         13.9804    0.8945    7.3478 C.2     1  RES11       0.0297
     71 H3         14.4434    0.0970    7.2387 H       1  RES11       0.0831
     72 C5         13.0155    0.8024    4.0460 C.3     1  RES11      -0.0285
     73 H5A        12.7658    1.7382    4.0242 H       1  RES11       0.0286
     74 H5B        13.9416    0.7200    3.7599 H       1  RES11       0.0286
     75 C6         12.1210    0.0000    3.1587 C.3     1  RES11      -0.0491
     76 H6A        12.6471   -0.5867    2.5915 H       1  RES11       0.0267
     77 N1         11.1489   -1.1951    6.4872 N.2     1  RES11      -0.2856
     78 C1          8.8338   -1.4182    9.2798 C.ar    1  RES11      -0.0445
     79 H1          8.3126   -0.6764    9.0641 H       1  RES11       0.0630
     80 C4         11.4059   -0.2400    5.4205 C.3     1  RES11       0.0730
     81 H4         10.8095    0.5309    5.5320 H       1  RES11       0.0565
     82 C2          9.9295   -1.7357    8.4992 C.ar    1  RES11      -0.0062
     83 C3         10.2616   -0.8945    7.3478 C.2     1  RES11       0.0297
     84 H3          9.7986   -0.0970    7.2387 H       1  RES11       0.0831
     85 C5         11.2265   -0.8024    4.0460 C.3     1  RES11      -0.0285
     86 H5A        11.4762   -1.7382    4.0242 H       1  RES11       0.0286
     87 H5B        10.3004   -0.7200    3.7599 H       1  RES11       0.0286
     88 H6A        11.5949    0.5867    2.5915 H       1  RES11       0.0267
     89 N1         17.7548    0.9721   10.9259 N.2     1  RES11      -0.2856
     90 C1         14.9622    3.2872   10.7028 C.ar    1  RES11      -0.0445
     91 H1         15.1779    3.8084   11.4446 H       1  RES11       0.0630
     92 C4         18.8215    0.7151   11.8810 C.3     1  RES11       0.0730
     93 H4         18.7100    1.3115   12.6519 H       1  RES11       0.0565
     94 C2         15.7428    2.1915   10.3853 C.ar    1  RES11      -0.0062
     95 C3         16.8942    1.8594   11.2265 C.2     1  RES11       0.0297
     96 H3         17.0033    2.3224   12.0240 H       1  RES11       0.0831
     97 C5         20.1960    0.8945   11.3186 C.3     1  RES11      -0.0285
     98 H5A        20.2178    0.6448   10.3828 H       1  RES11       0.0286
     99 H5B        20.4821    1.8206   11.4010 H       1  RES11       0.0286
    100 C6         21.0833    0.0000   12.1210 C.3     1  RES11      -0.0491
    101 H6A        21.6505    0.5261   12.7077 H       1  RES11       0.0267
    102 N1          6.4872   -0.9721   10.9259 N.2     1  RES11      -0.2856
    103 C1          9.2798   -3.2872   10.7028 C.ar    1  RES11      -0.0445
    104 H1          9.0641   -3.8084   11.4446 H       1  RES11       0.0630
    105 C4          5.4205   -0.7151   11.8810 C.3     1  RES11       0.0730
    106 H4          5.5320   -1.3115   12.6519 H       1  RES11       0.0565
    107 C2          8.4992   -2.1915   10.3853 C.ar    1  RES11      -0.0062
    108 C3          7.3478   -1.8594   11.2265 C.2     1  RES11       0.0297
    109 H3          7.2387   -2.3224   12.0240 H       1  RES11       0.0831
    110 C5          4.0460   -0.8945   11.3186 C.3     1  RES11      -0.0285
    111 H5A         4.0242   -0.6448   10.3828 H       1  RES11       0.0286
    112 H5B         3.7599   -1.8206   11.4010 H       1  RES11       0.0286
    113 H6A         2.5915   -0.5261   12.7077 H       1  RES11       0.0267
    114 N1         13.3161   -5.6338   13.0931 N.2     1  RES11      -0.2856
    115 C1         13.5392   -2.8412   15.4082 C.ar    1  RES11      -0.0445
    116 H1         12.7974   -3.0569   15.9294 H       1  RES11       0.0630
    117 C4         12.3610   -6.7005   12.8361 C.3     1  RES11       0.0730
    118 H4         11.5901   -6.5890   13.4325 H       1  RES11       0.0565
    119 C2         13.8567   -3.6218   14.3125 C.ar    1  RES11      -0.0062
    120 C3         13.0155   -4.7732   13.9804 C.2     1  RES11       0.0297
    121 H3         12.2180   -4.8823   14.4434 H       1  RES11       0.0831
    122 C5         12.9234   -8.0750   13.0155 C.3     1  RES11      -0.0285
    123 H5A        13.8592   -8.0968   12.7658 H       1  RES11       0.0286
    124 H5B        12.8410   -8.3611   13.9416 H       1  RES11       0.0286
    125 C6         12.1210   -8.9623   12.1210 C.3     1  RES11      -0.0491
    126 H6A        11.5343   -9.5295   12.6471 H       1  RES11       0.0267
    127 N1         10.9259   -5.6338   11.1489 N.2     1  RES11      -0.2856
    128 C1         10.7028   -2.8412    8.8338 C.ar    1  RES11      -0.0445
    129 H1         11.4446   -3.0569    8.3126 H       1  RES11       0.0630
    130 C4         11.8810   -6.7005   11.4059 C.3     1  RES11       0.0730
    131 H4         12.6519   -6.5890   10.8095 H       1  RES11       0.0565
    132 C2         10.3853   -3.6218    9.9295 C.ar    1  RES11      -0.0062
    133 C3         11.2265   -4.7732   10.2616 C.2     1  RES11       0.0297
    134 H3         12.0240   -4.8823    9.7986 H       1  RES11       0.0831
    135 C5         11.3186   -8.0750   11.2265 C.3     1  RES11      -0.0285
    136 H5A        10.3828   -8.0968   11.4762 H       1  RES11       0.0286
    137 H5B        11.4010   -8.3611   10.3004 H       1  RES11       0.0286
    138 H6A        12.7077   -9.5295   11.5949 H       1  RES11       0.0267
    139 N1         17.7548   -0.9721   13.3161 N.2     1  RES11      -0.2856
    140 C1         14.9622   -3.2872   13.5392 C.ar    1  RES11      -0.0445
    141 H1         15.1779   -3.8084   12.7974 H       1  RES11       0.0630
    142 C4         18.8215   -0.7151   12.3610 C.3     1  RES11       0.0730
    143 H4         18.7100   -1.3115   11.5901 H       1  RES11       0.0565
    144 C2         15.7428   -2.1915   13.8567 C.ar    1  RES11      -0.0062
    145 C3         16.8942   -1.8594   13.0155 C.2     1  RES11       0.0297
    146 H3         17.0033   -2.3224   12.2180 H       1  RES11       0.0831
    147 C5         20.1960   -0.8945   12.9234 C.3     1  RES11      -0.0285
    148 H5A        20.2178   -0.6448   13.8592 H       1  RES11       0.0286
    149 H5B        20.4821   -1.8206   12.8410 H       1  RES11       0.0286
    150 H6A        21.6505   -0.5261   11.5343 H       1  RES11       0.0267
@<TRIPOS>BOND
     1     1     4    1
     2     1     7    2
     3     2     3    1
     4     2     6   ar
     5     2    31   ar
     6     4     5    1
     7     4     9    1
     8     4    17    1
     9     6     7    1
    10     6    40   ar
    11     7     8    1
    12     9    10    1
    13     9    11    1
    14     9    12    1
    15    12    13    1
    16    12    22    1
    17    12    25    1
    18    14    17    1
    19    14    20    2
    20    15    16    1
    21    15    19   ar
    22    15    69   ar
    23    17    18    1
    24    17    22    1
    25    19    20    1
    26    19    90   ar
    27    20    21    1
    28    22    23    1
    29    22    24    1
    30    26    29    1
    31    26    32    2
    32    27    28    1
    33    27    31   ar
    34    27    44   ar
    35    29    30    1
    36    29    34    1
    37    29    55    1
    38    31    32    1
    39    32    33    1
    40    34    35    1
    41    34    36    1
    42    34    37    1
    43    37    38    1
    44    37    60    1
    45    37    63    1
    46    39    42    1
    47    39    45    2
    48    40    41    1
    49    40    44   ar
    50    42    43    1
    51    42    47    1
    52    42   105    1
    53    44    45    1
    54    45    46    1
    55    47    48    1
    56    47    49    1
    57    47    50    1
    58    50    51    1
    59    50   110    1
    60    50   113    1
    61    52    55    1
    62    52    58    2
    63    53    54    1
    64    53    57   ar
    65    53   144   ar
    66    55    56    1
    67    55    60    1
    68    57    58    1
    69    57   115   ar
    70    58    59    1
    71    60    61    1
    72    60    62    1
    73    64    67    1
    74    64    70    2
    75    65    66    1
    76    65    69   ar
    77    65    94   ar
    78    67    68    1
    79    67    72    1
    80    67    80    1
    81    69    70    1
    82    70    71    1
    83    72    73    1
    84    72    74    1
    85    72    75    1
    86    75    76    1
    87    75    85    1
    88    75    88    1
    89    77    80    1
    90    77    83    2
    91    78    79    1
    92    78    82   ar
    93    78   107   ar
    94    80    81    1
    95    80    85    1
    96    82    83    1
    97    82   128   ar
    98    83    84    1
    99    85    86    1
   100    85    87    1
   101    89    92    1
   102    89    95    2
   103    90    91    1
   104    90    94   ar
   105    92    93    1
   106    92    97    1
   107    92   142    1
   108    94    95    1
   109    95    96    1
   110    97    98    1
   111    97    99    1
   112    97   100    1
   113   100   101    1
   114   100   147    1
   115   100   150    1
   116   102   105    1
   117   102   108    2
   118   103   104    1
   119   103   107   ar
   120   103   132   ar
   121   105   106    1
   122   105   110    1
   123   107   108    1
   124   108   109    1
   125   110   111    1
   126   110   112    1
   127   114   117    1
   128   114   120    2
   129   115   116    1
   130   115   119   ar
   131   117   118    1
   132   117   122    1
   133   117   130    1
   134   119   120    1
   135   119   140   ar
   136   120   121    1
   137   122   123    1
   138   122   124    1
   139   122   125    1
   140   125   126    1
   141   125   135    1
   142   125   138    1
   143   127   130    1
   144   127   133    2
   145   128   129    1
   146   128   132   ar
   147   130   131    1
   148   130   135    1
   149   132   133    1
   150   133   134    1
   151   135   136    1
   152   135   137    1
   153   139   142    1
   154   139   145    2
   155   140   141    1
   156   140   144   ar
   157   142   143    1
   158   142   147    1
   159   144   145    1
   160   145   146    1
   161   147   148    1
   162   147   149    1
