@<TRIPOS>MOLECULE
*****
 168 180 0 0 0
SMALL
GASTEIGER

@<TRIPOS>ATOM
      1 N5          8.9480    7.7675    5.9022 N.2     1  RES11      -0.2856
      2 C4          7.5247    7.4706    5.9200 C.3     1  RES11       0.0730
      3 H4          7.3848    6.4904    6.0505 H       1  RES11       0.0565
      4 C2         11.2203    7.0602    5.9841 C.ar    1  RES11      -0.0062
      5 N4          7.3760    7.6540    8.3349 N.2     1  RES11      -0.2856
      6 C14         9.3107    7.1934   12.9588 C.ar    1  RES11      -0.0445
      7 H14         9.6296    6.9248   13.8132 H       1  RES11       0.0630
      8 C1         11.7547    8.3526    5.9897 C.ar    1  RES11      -0.0445
      9 H1         11.1623    9.0948    5.9985 H       1  RES11       0.0630
     10 C3          9.7758    6.8419    6.0007 C.2     1  RES11       0.0297
     11 H3          9.4519    5.9533    6.0926 H       1  RES11       0.0831
     12 C9          6.9046    8.2347    7.0876 C.3     1  RES11       0.0730
     13 H9          7.1756    9.1974    7.0411 H       1  RES11       0.0565
     14 C12         8.8809    8.8984   11.3640 C.ar    1  RES11      -0.0445
     15 H12         8.8847    9.8175   11.1227 H       1  RES11       0.0630
     16 C18         9.6208    9.5686   13.6195 C.2     1  RES11       0.0297
     17 H18        10.0582    9.3044   14.4208 H       1  RES11       0.0831
     18 C13         9.2931    8.5381   12.6257 C.ar    1  RES11      -0.0062
     19 C5          6.9386    7.8963    4.5719 C.3     1  RES11      -0.0286
     20 H5A         7.1970    8.8329    4.3794 H       1  RES11       0.0286
     21 H5B         7.3104    7.3222    3.8548 H       1  RES11       0.0286
     22 C15         8.8671    6.2371   12.0624 C.ar    1  RES11      -0.0062
     23 C20        10.7640   12.6533   13.8962 C.3     1  RES11       0.0730
     24 H20        10.4174   13.0354   13.0396 H       1  RES11       0.0565
     25 C19         9.7229   11.7320   14.4905 C.3     1  RES11       0.0730
     26 H19        10.1123   11.2496   15.2741 H       1  RES11       0.0565
     27 C16         8.4738    6.6214   10.8151 C.ar    1  RES11      -0.0445
     28 H16         8.2028    5.9599   10.1898 H       1  RES11       0.0630
     29 N7          9.3536   10.7693   13.4591 N.2     1  RES11      -0.2856
     30 C8          5.3706    8.1321    7.0499 C.3     1  RES11      -0.0286
     31 H8A         4.9812    8.6931    7.7649 H       1  RES11       0.0286
     32 H8B         5.0959    7.1934    7.2071 H       1  RES11       0.0286
     33 C10         7.9785    8.4050    9.1372 C.2     1  RES11       0.0297
     34 H10         8.1247    9.3088    8.8849 H       1  RES11       0.0831
     35 N6          8.9225    4.4208   13.6328 N.2     1  RES11      -0.2856
     36 C6          5.4425    7.7806    4.5808 C.3     1  RES11      -0.0510
     37 H6A         5.0833    8.0884    3.7109 H       1  RES11       0.0266
     38 H6B         5.1854    6.8331    4.7003 H       1  RES11       0.0266
     39 C7          4.8539    8.5993    5.6831 C.3     1  RES11      -0.0510
     40 H7A         3.8657    8.5207    5.6599 H       1  RES11       0.0266
     41 H7B         5.0883    9.5511    5.5492 H       1  RES11       0.0266
     42 C21        11.1245   13.8104   14.8713 C.3     1  RES11      -0.0286
     43 H21A       11.5845   13.4458   15.6681 H       1  RES11       0.0286
     44 H21B       11.7370   14.4478   14.4230 H       1  RES11       0.0286
     45 C24         8.4877   12.5049   14.9321 C.3     1  RES11      -0.0286
     46 H24A        8.0427   12.8956   14.1397 H       1  RES11       0.0286
     47 H24B        7.8499   11.8849   15.3660 H       1  RES11       0.0286
     48 C11         8.4625    7.9640   10.4366 C.ar    1  RES11      -0.0062
     49 C23         8.8557   13.6052   15.8994 C.3     1  RES11      -0.0510
     50 H23A        8.0415   14.1073   16.1518 H       1  RES11       0.0266
     51 H23B        9.2364   13.2078   16.7217 H       1  RES11       0.0266
     52 C22         9.8426   14.5373   15.2996 C.3     1  RES11      -0.0510
     53 H22A       10.0695   15.2403   15.9581 H       1  RES11       0.0266
     54 H22B        9.4368   14.9783   14.5105 H       1  RES11       0.0266
     55 C17         8.8255    4.7985   12.4530 C.2     1  RES11       0.0297
     56 H17         8.7246    4.1435   11.7713 H       1  RES11       0.0831
     57 N5         14.0076    3.8654    5.9022 N.2     1  RES11      -0.2856
     58 C4         14.9763    2.7813    5.9200 C.3     1  RES11       0.0730
     59 H4         15.8952    3.1502    6.0505 H       1  RES11       0.0565
     60 C2         13.4840    6.1869    5.9841 C.ar    1  RES11      -0.0062
     61 N4         14.8919    2.5608    8.3349 N.2     1  RES11      -0.2856
     62 C14        14.3234    4.4666   12.9588 C.ar    1  RES11      -0.0445
     63 H14        14.3965    4.8771   13.8132 H       1  RES11       0.0630
     64 C1         12.0975    6.0036    5.9897 C.ar    1  RES11      -0.0445
     65 H1         11.7509    5.1194    5.9985 H       1  RES11       0.0630
     66 C3         14.3953    5.0452    6.0007 C.2     1  RES11       0.0297
     67 H3         15.3267    5.2089    6.0926 H       1  RES11       0.0831
     68 C9         14.6247    1.8622    7.0876 C.3     1  RES11       0.0730
     69 H9         13.6554    1.6155    7.0411 H       1  RES11       0.0565
     70 C12        13.0617    3.2419   11.3640 C.ar    1  RES11      -0.0445
     71 H12        12.2639    2.7857   11.1227 H       1  RES11       0.0630
     72 C18        12.1114    3.5476   13.6195 C.2     1  RES11       0.0297
     73 H18        12.1215    4.0584   14.4208 H       1  RES11       0.0831
     74 C13        13.1676    3.7790   12.6257 C.ar    1  RES11      -0.0062
     75 C5         14.9007    2.0609    4.5719 C.3     1  RES11      -0.0286
     76 H5A        13.9604    1.8163    4.3794 H       1  RES11       0.0286
     77 H5B        15.2120    2.6699    3.8548 H       1  RES11       0.0286
     78 C15        15.3733    4.5605   12.0624 C.ar    1  RES11      -0.0062
     79 C20         8.8683    2.9952   13.8962 C.3     1  RES11       0.0730
     80 H20         8.7108    2.5040   13.0396 H       1  RES11       0.0565
     81 C19        10.1867    2.5542   14.4905 C.3     1  RES11       0.0730
     82 H19        10.4098    3.1328   15.2741 H       1  RES11       0.0565
     83 C16        15.2372    4.0278   10.8151 C.ar    1  RES11      -0.0445
     84 H16        15.9456    4.1239   10.1898 H       1  RES11       0.0630
     85 N7         11.2051    2.7158   13.4591 N.2     1  RES11      -0.2856
     86 C8         15.4805    0.5851    7.0499 C.3     1  RES11      -0.0286
     87 H8A        15.1893   -0.0327    7.7649 H       1  RES11       0.0286
     88 H8B        16.4308    0.8165    7.2071 H       1  RES11       0.0286
     89 C10        13.9402    2.7071    9.1372 C.2     1  RES11       0.0297
     90 H10        13.0844    2.3818    8.8849 H       1  RES11       0.0831
     91 N6         16.9186    5.5167   13.6328 N.2     1  RES11      -0.2856
     92 C6         15.7489    0.8230    4.5808 C.3     1  RES11      -0.0510
     93 H6A        15.6620    0.3580    3.7109 H       1  RES11       0.0266
     94 H6B        16.6980    1.0741    4.7003 H       1  RES11       0.0266
     95 C7         15.3343   -0.0961    5.6831 C.3     1  RES11      -0.0510
     96 H7A        15.8964   -0.9125    5.6599 H       1  RES11       0.0266
     97 H7B        14.3927   -0.3689    5.5492 H       1  RES11       0.0266
     98 C21         7.6860    2.7289   14.8713 C.3     1  RES11      -0.0286
     99 H21A        7.7717    3.3096   15.6681 H       1  RES11       0.0286
    100 H21B        6.8277    2.9407   14.4230 H       1  RES11       0.0286
    101 C24        10.1350    1.0981   14.9321 C.3     1  RES11      -0.0286
    102 H24A       10.0191    0.5174   14.1397 H       1  RES11       0.0286
    103 H24B       10.9909    0.8558   15.3660 H       1  RES11       0.0286
    104 C11        14.0802    3.3467   10.4366 C.ar    1  RES11      -0.0062
    105 C23         8.9981    0.8667   15.8994 C.3     1  RES11      -0.0510
    106 H23A        8.9704   -0.0895   16.1518 H       1  RES11       0.0266
    107 H23B        9.1519    1.3950   16.7217 H       1  RES11       0.0266
    108 C22         7.6974    1.2553   15.2996 C.3     1  RES11      -0.0510
    109 H22A        6.9752    1.1003   15.9581 H       1  RES11       0.0266
    110 H22B        7.5184    0.6833   14.5105 H       1  RES11       0.0266
    111 C17        16.6401    5.2438   12.4530 C.2     1  RES11       0.0297
    112 H17        17.2577    5.4840   11.7713 H       1  RES11       0.0831
    113 N5         14.8571   10.1982    5.9022 N.2     1  RES11      -0.2856
    114 C4         15.3116   11.5792    5.9200 C.3     1  RES11       0.0730
    115 H4         14.5326   12.1905    6.0505 H       1  RES11       0.0565
    116 C2         13.1084    8.5840    5.9841 C.ar    1  RES11      -0.0062
    117 N4         15.5448   11.6163    8.3349 N.2     1  RES11      -0.2856
    118 C14        14.1785   10.1711   12.9588 C.ar    1  RES11      -0.0445
    119 H14        13.7865   10.0292   13.8132 H       1  RES11       0.0630
    120 C1         13.9604    7.4750    5.9897 C.ar    1  RES11      -0.0445
    121 H1         14.8994    7.6169    5.9985 H       1  RES11       0.0630
    122 C3         13.6415    9.9441    6.0007 C.2     1  RES11       0.0297
    123 H3         13.0340   10.6689    6.0926 H       1  RES11       0.0831
    124 C9         16.2834   11.7342    7.0876 C.3     1  RES11       0.0730
    125 H9         16.9816   11.0182    7.0411 H       1  RES11       0.0565
    126 C12        15.8699    9.6908   11.3640 C.ar    1  RES11      -0.0445
    127 H12        16.6640    9.2280   11.1227 H       1  RES11       0.0630
    128 C18        16.0804    8.7150   13.6195 C.2     1  RES11       0.0297
    129 H18        15.6330    8.4683   14.4208 H       1  RES11       0.0831
    130 C13        15.3519    9.5140   12.6257 C.ar    1  RES11      -0.0062
    131 C5         15.9733   11.8739    4.5719 C.3     1  RES11      -0.0286
    132 H5A        16.6552   11.1819    4.3794 H       1  RES11       0.0286
    133 H5B        15.2902   11.8390    3.8548 H       1  RES11       0.0286
    134 C15        13.5722   11.0334   12.0624 C.ar    1  RES11      -0.0062
    135 C20        18.1803    6.1826   13.8962 C.3     1  RES11       0.0730
    136 H20        18.6845    6.2917   13.0396 H       1  RES11       0.0565
    137 C19        17.9030    7.5448   14.4905 C.3     1  RES11       0.0730
    138 H19        17.2904    7.4488   15.2741 H       1  RES11       0.0565
    139 C16        14.1016   11.1819   10.8151 C.ar    1  RES11      -0.0445
    140 H16        13.6642   11.7473   10.1898 H       1  RES11       0.0630
    141 N7         17.2539    8.3460   13.4591 N.2     1  RES11      -0.2856
    142 C8         16.9615   13.1140    7.0499 C.3     1  RES11      -0.0286
    143 H8A        17.6421   13.1707    7.7649 H       1  RES11       0.0286
    144 H8B        16.2859   13.8213    7.2071 H       1  RES11       0.0286
    145 C10        15.8939   10.7191    9.1372 C.2     1  RES11       0.0297
    146 H10        16.6035   10.1406    8.8849 H       1  RES11       0.0831
    147 N6         11.9715   11.8936   13.6328 N.2     1  RES11      -0.2856
    148 C6         16.6212   13.2275    4.5808 C.3     1  RES11      -0.0510
    149 H6A        17.0673   13.3847    3.7109 H       1  RES11       0.0266
    150 H6B        15.9292   13.9239    4.7003 H       1  RES11       0.0266
    151 C7         17.6245   13.3279    5.6831 C.3     1  RES11      -0.0510
    152 H7A        18.0505   14.2230    5.6599 H       1  RES11       0.0266
    153 H7B        18.3315   12.6489    5.5492 H       1  RES11       0.0266
    154 C21        19.0021    5.2919   14.8713 C.3     1  RES11      -0.0286
    155 H21A       18.4563    5.0757   15.6681 H       1  RES11       0.0286
    156 H21B       19.2479    4.4426   14.4230 H       1  RES11       0.0286
    157 C24        19.1899    8.2281   14.9321 C.3     1  RES11      -0.0286
    158 H24A       19.7508    8.4181   14.1397 H       1  RES11       0.0286
    159 H24B       18.9718    9.0905   15.3660 H       1  RES11       0.0286
    160 C11        15.2700   10.5204   10.4366 C.ar    1  RES11      -0.0062
    161 C23        19.9588    7.3593   15.8994 C.3     1  RES11      -0.0510
    162 H23A       20.8007    7.8134   16.1518 H       1  RES11       0.0266
    163 H23B       19.4243    7.2283   16.7217 H       1  RES11       0.0266
    164 C22        20.2726    6.0385   15.2996 C.3     1  RES11      -0.0510
    165 H22A       20.7679    5.4905   15.9581 H       1  RES11       0.0266
    166 H22B       20.8574    6.1695   14.5105 H       1  RES11       0.0266
    167 C17        12.3471   11.7888   12.4530 C.2     1  RES11       0.0297
    168 H17        11.8303   12.2036   11.7713 H       1  RES11       0.0831
@<TRIPOS>BOND
     1     1     2    1
     2     1    10    2
     3     2     3    1
     4     2    12    1
     5     2    19    1
     6     4     8   ar
     7     4    10    1
     8     4    64   ar
     9     5    12    1
    10     5    33    2
    11     6     7    1
    12     6    18   ar
    13     6    22   ar
    14     8     9    1
    15     8   116   ar
    16    10    11    1
    17    12    13    1
    18    12    30    1
    19    14    15    1
    20    14    18   ar
    21    14    48   ar
    22    16    17    1
    23    16    18    1
    24    16    29    2
    25    19    20    1
    26    19    21    1
    27    19    36    1
    28    22    27   ar
    29    22    55    1
    30    23    24    1
    31    23    25    1
    32    23    42    1
    33    23   147    1
    34    25    26    1
    35    25    29    1
    36    25    45    1
    37    27    28    1
    38    27    48   ar
    39    30    31    1
    40    30    32    1
    41    30    39    1
    42    33    34    1
    43    33    48    1
    44    35    55    2
    45    35    79    1
    46    36    37    1
    47    36    38    1
    48    36    39    1
    49    39    40    1
    50    39    41    1
    51    42    43    1
    52    42    44    1
    53    42    52    1
    54    45    46    1
    55    45    47    1
    56    45    49    1
    57    49    50    1
    58    49    51    1
    59    49    52    1
    60    52    53    1
    61    52    54    1
    62    55    56    1
    63    57    58    1
    64    57    66    2
    65    58    59    1
    66    58    68    1
    67    58    75    1
    68    60    64   ar
    69    60    66    1
    70    60   120   ar
    71    61    68    1
    72    61    89    2
    73    62    63    1
    74    62    74   ar
    75    62    78   ar
    76    64    65    1
    77    66    67    1
    78    68    69    1
    79    68    86    1
    80    70    71    1
    81    70    74   ar
    82    70   104   ar
    83    72    73    1
    84    72    74    1
    85    72    85    2
    86    75    76    1
    87    75    77    1
    88    75    92    1
    89    78    83   ar
    90    78   111    1
    91    79    80    1
    92    79    81    1
    93    79    98    1
    94    81    82    1
    95    81    85    1
    96    81   101    1
    97    83    84    1
    98    83   104   ar
    99    86    87    1
   100    86    88    1
   101    86    95    1
   102    89    90    1
   103    89   104    1
   104    91   111    2
   105    91   135    1
   106    92    93    1
   107    92    94    1
   108    92    95    1
   109    95    96    1
   110    95    97    1
   111    98    99    1
   112    98   100    1
   113    98   108    1
   114   101   102    1
   115   101   103    1
   116   101   105    1
   117   105   106    1
   118   105   107    1
   119   105   108    1
   120   108   109    1
   121   108   110    1
   122   111   112    1
   123   113   114    1
   124   113   122    2
   125   114   115    1
   126   114   124    1
   127   114   131    1
   128   116   120   ar
   129   116   122    1
   130   117   124    1
   131   117   145    2
   132   118   119    1
   133   118   130   ar
   134   118   134   ar
   135   120   121    1
   136   122   123    1
   137   124   125    1
   138   124   142    1
   139   126   127    1
   140   126   130   ar
   141   126   160   ar
   142   128   129    1
   143   128   130    1
   144   128   141    2
   145   131   132    1
   146   131   133    1
   147   131   148    1
   148   134   139   ar
   149   134   167    1
   150   135   136    1
   151   135   137    1
   152   135   154    1
   153   137   138    1
   154   137   141    1
   155   137   157    1
   156   139   140    1
   157   139   160   ar
   158   142   143    1
   159   142   144    1
   160   142   151    1
   161   145   146    1
   162   145   160    1
   163   147   167    2
   164   148   149    1
   165   148   150    1
   166   148   151    1
   167   151   152    1
   168   151   153    1
   169   154   155    1
   170   154   156    1
   171   154   164    1
   172   157   158    1
   173   157   159    1
   174   157   161    1
   175   161   162    1
   176   161   163    1
   177   161   164    1
   178   164   165    1
   179   164   166    1
   180   167   168    1
