####################################################################### 
# 
# This file contains crystal structure data downloaded from the 
# Cambridge Structural Database (CSD) hosted by the Cambridge 
# Crystallographic Data Centre (CCDC).
# 
# Full information about CCDC data access policies and citation 
# guidelines are available at http://www.ccdc.cam.ac.uk/access/V1 
# 
# Audit and citation data items may have been added by the CCDC. 
# Please retain this information to preserve the provenance of 
# this file and to allow appropriate attribution of the data. 
# 
#######################################################################
@<TRIPOS>MOLECULE
998365
   168   180     1     0     0
SMALL
NO_CHARGES
****
Generated from the CSD

@<TRIPOS>ATOM
     1 N1      11.5268  11.3119   6.9116   N.2       1 RES1   0.0000
     2 C1       9.2115  11.0990   9.6725   C.ar      1 RES1   0.0000
     3 H1       8.6619  11.8103   9.4353   H         1 RES1   0.0000
     4 C2      10.3278  10.8031   8.9053   C.ar      1 RES1   0.0000
     5 C3      10.6315  11.6287   7.7293   C.2       1 RES1   0.0000
     6 H3      10.1466  12.4096   7.5850   H         1 RES1   0.0000
     7 C4      11.7407  12.1684   5.7465   C.3       1 RES1   0.0000
     8 H4      11.1115  12.9194   5.7820   H         1 RES1   0.0000
     9 C5      11.4795  11.3577   4.4739   C.3       1 RES1   0.0000
    10 H5A     10.5594  11.0493   4.4714   H         1 RES1   0.0000
    11 H5B     12.0590  10.5818   4.4615   H         1 RES1   0.0000
    12 C6      11.7382  12.2157   3.2230   C.3       1 RES1   0.0000
    13 H6A     11.5566  11.6984   2.4247   H         1 RES1   0.0000
    14 H6B     11.1513  12.9891   3.2230   H         1 RES1   0.0000
    15 N1      13.3422  13.5571   6.9116   N.2       1 RES1   0.0000
    16 C1      15.6575  13.7700   9.6725   C.ar      1 RES1   0.0000
    17 H1      16.2071  13.0587   9.4353   H         1 RES1   0.0000
    18 C2      14.5412  14.0659   8.9053   C.ar      1 RES1   0.0000
    19 C3      14.2375  13.2403   7.7293   C.2       1 RES1   0.0000
    20 H3      14.7224  12.4594   7.5850   H         1 RES1   0.0000
    21 C4      13.1283  12.7006   5.7465   C.3       1 RES1   0.0000
    22 H4      13.7575  11.9496   5.7820   H         1 RES1   0.0000
    23 C5      13.3895  13.5113   4.4739   C.3       1 RES1   0.0000
    24 H5A     14.3096  13.8197   4.4714   H         1 RES1   0.0000
    25 H5B     12.8100  14.2872   4.4615   H         1 RES1   0.0000
    26 C6      13.1308  12.6533   3.2230   C.3       1 RES1   0.0000
    27 H6A     13.3124  13.1706   2.4247   H         1 RES1   0.0000
    28 H6B     13.7177  11.8799   3.2230   H         1 RES1   0.0000
    29 N1       6.9116  11.5268  11.3119   N.2       1 RES1   0.0000
    30 C1       9.6725   9.2115  11.0990   C.ar      1 RES1   0.0000
    31 H1       9.4353   8.6619  11.8103   H         1 RES1   0.0000
    32 C2       8.9053  10.3278  10.8031   C.ar      1 RES1   0.0000
    33 C3       7.7293  10.6315  11.6287   C.2       1 RES1   0.0000
    34 H3       7.5850  10.1466  12.4096   H         1 RES1   0.0000
    35 C4       5.7465  11.7407  12.1684   C.3       1 RES1   0.0000
    36 H4       5.7820  11.1115  12.9194   H         1 RES1   0.0000
    37 C5       4.4739  11.4795  11.3577   C.3       1 RES1   0.0000
    38 H5A      4.4714  10.5594  11.0493   H         1 RES1   0.0000
    39 H5B      4.4615  12.0590  10.5818   H         1 RES1   0.0000
    40 C6       3.2230  11.7382  12.2157   C.3       1 RES1   0.0000
    41 H6A      2.4247  11.5566  11.6984   H         1 RES1   0.0000
    42 H6B      3.2230  11.1513  12.9891   H         1 RES1   0.0000
    43 N1      11.3119   6.9116  11.5268   N.2       1 RES1   0.0000
    44 C1      11.0990   9.6725   9.2115   C.ar      1 RES1   0.0000
    45 H1      11.8103   9.4353   8.6619   H         1 RES1   0.0000
    46 C2      10.8031   8.9053  10.3278   C.ar      1 RES1   0.0000
    47 C3      11.6287   7.7293  10.6315   C.2       1 RES1   0.0000
    48 H3      12.4096   7.5850  10.1466   H         1 RES1   0.0000
    49 C4      12.1684   5.7465  11.7407   C.3       1 RES1   0.0000
    50 H4      12.9194   5.7820  11.1115   H         1 RES1   0.0000
    51 C5      11.3577   4.4739  11.4795   C.3       1 RES1   0.0000
    52 H5A     11.0493   4.4714  10.5594   H         1 RES1   0.0000
    53 H5B     10.5818   4.4615  12.0590   H         1 RES1   0.0000
    54 C6      12.2157   3.2230  11.7382   C.3       1 RES1   0.0000
    55 H6A     11.6984   2.4247  11.5566   H         1 RES1   0.0000
    56 H6B     12.9891   3.2230  11.1513   H         1 RES1   0.0000
    57 N1      13.5571  17.9574  11.5268   N.2       1 RES1   0.0000
    58 C1      13.7700  15.1965   9.2115   C.ar      1 RES1   0.0000
    59 H1      13.0587  15.4337   8.6619   H         1 RES1   0.0000
    60 C2      14.0659  15.9637  10.3278   C.ar      1 RES1   0.0000
    61 C3      13.2403  17.1397  10.6315   C.2       1 RES1   0.0000
    62 H3      12.4594  17.2840  10.1466   H         1 RES1   0.0000
    63 C4      12.7006  19.1225  11.7407   C.3       1 RES1   0.0000
    64 H4      11.9496  19.0870  11.1115   H         1 RES1   0.0000
    65 C5      13.5113  20.3951  11.4795   C.3       1 RES1   0.0000
    66 H5A     13.8197  20.3976  10.5594   H         1 RES1   0.0000
    67 H5B     14.2872  20.4075  12.0590   H         1 RES1   0.0000
    68 C6      12.6533  21.6460  11.7382   C.3       1 RES1   0.0000
    69 H6A     13.1706  22.4443  11.5566   H         1 RES1   0.0000
    70 H6B     11.8799  21.6460  11.1513   H         1 RES1   0.0000
    71 N1       6.9116  13.3422  13.5571   N.2       1 RES1   0.0000
    72 C1       9.6725  15.6575  13.7700   C.ar      1 RES1   0.0000
    73 H1       9.4353  16.2071  13.0587   H         1 RES1   0.0000
    74 C2       8.9053  14.5412  14.0659   C.ar      1 RES1   0.0000
    75 C3       7.7293  14.2375  13.2403   C.2       1 RES1   0.0000
    76 H3       7.5850  14.7224  12.4594   H         1 RES1   0.0000
    77 C4       5.7465  13.1283  12.7006   C.3       1 RES1   0.0000
    78 H4       5.7820  13.7575  11.9496   H         1 RES1   0.0000
    79 C5       4.4739  13.3895  13.5113   C.3       1 RES1   0.0000
    80 H5A      4.4714  14.3096  13.8197   H         1 RES1   0.0000
    81 H5B      4.4615  12.8100  14.2872   H         1 RES1   0.0000
    82 C6       3.2230  13.1308  12.6533   C.3       1 RES1   0.0000
    83 H6A      2.4247  13.3124  13.1706   H         1 RES1   0.0000
    84 H6B      3.2230  13.7177  11.8799   H         1 RES1   0.0000
    85 N1      13.5571   6.9116  13.3422   N.2       1 RES1   0.0000
    86 C1      13.7700   9.6725  15.6575   C.ar      1 RES1   0.0000
    87 H1      13.0587   9.4353  16.2071   H         1 RES1   0.0000
    88 C2      14.0659   8.9053  14.5412   C.ar      1 RES1   0.0000
    89 C3      13.2403   7.7293  14.2375   C.2       1 RES1   0.0000
    90 H3      12.4594   7.5850  14.7224   H         1 RES1   0.0000
    91 C4      12.7006   5.7465  13.1283   C.3       1 RES1   0.0000
    92 H4      11.9496   5.7820  13.7575   H         1 RES1   0.0000
    93 C5      13.5113   4.4739  13.3895   C.3       1 RES1   0.0000
    94 H5A     13.8197   4.4714  14.3096   H         1 RES1   0.0000
    95 H5B     14.2872   4.4615  12.8100   H         1 RES1   0.0000
    96 C6      12.6533   3.2230  13.1308   C.3       1 RES1   0.0000
    97 H6A     13.1706   2.4247  13.3124   H         1 RES1   0.0000
    98 H6B     11.8799   3.2230  13.7177   H         1 RES1   0.0000
    99 N1      17.9574  13.3422  11.3119   N.2       1 RES1   0.0000
   100 C1      15.1965  15.6575  11.0990   C.ar      1 RES1   0.0000
   101 H1      15.4337  16.2071  11.8103   H         1 RES1   0.0000
   102 C2      15.9637  14.5412  10.8031   C.ar      1 RES1   0.0000
   103 C3      17.1397  14.2375  11.6287   C.2       1 RES1   0.0000
   104 H3      17.2840  14.7224  12.4096   H         1 RES1   0.0000
   105 C4      19.1225  13.1283  12.1684   C.3       1 RES1   0.0000
   106 H4      19.0870  13.7575  12.9194   H         1 RES1   0.0000
   107 C5      20.3951  13.3895  11.3577   C.3       1 RES1   0.0000
   108 H5A     20.3976  14.3096  11.0493   H         1 RES1   0.0000
   109 H5B     20.4075  12.8100  10.5818   H         1 RES1   0.0000
   110 C6      21.6460  13.1308  12.2157   C.3       1 RES1   0.0000
   111 H6A     22.4443  13.3124  11.6984   H         1 RES1   0.0000
   112 H6B     21.6460  13.7177  12.9891   H         1 RES1   0.0000
   113 N1      17.9574  11.5268  13.5571   N.2       1 RES1   0.0000
   114 C1      15.1965   9.2115  13.7700   C.ar      1 RES1   0.0000
   115 H1      15.4337   8.6619  13.0587   H         1 RES1   0.0000
   116 C2      15.9637  10.3278  14.0659   C.ar      1 RES1   0.0000
   117 C3      17.1397  10.6315  13.2403   C.2       1 RES1   0.0000
   118 H3      17.2840  10.1466  12.4594   H         1 RES1   0.0000
   119 C4      19.1225  11.7407  12.7006   C.3       1 RES1   0.0000
   120 H4      19.0870  11.1115  11.9496   H         1 RES1   0.0000
   121 C5      20.3951  11.4795  13.5113   C.3       1 RES1   0.0000
   122 H5A     20.3976  10.5594  13.8197   H         1 RES1   0.0000
   123 H5B     20.4075  12.0590  14.2872   H         1 RES1   0.0000
   124 C6      21.6460  11.7382  12.6533   C.3       1 RES1   0.0000
   125 H6A     22.4443  11.5566  13.1706   H         1 RES1   0.0000
   126 H6B     21.6460  11.1513  11.8799   H         1 RES1   0.0000
   127 N1      11.3119  17.9574  13.3422   N.2       1 RES1   0.0000
   128 C1      11.0990  15.1965  15.6575   C.ar      1 RES1   0.0000
   129 H1      11.8103  15.4337  16.2071   H         1 RES1   0.0000
   130 C2      10.8031  15.9637  14.5412   C.ar      1 RES1   0.0000
   131 C3      11.6287  17.1397  14.2375   C.2       1 RES1   0.0000
   132 H3      12.4096  17.2840  14.7224   H         1 RES1   0.0000
   133 C4      12.1684  19.1225  13.1283   C.3       1 RES1   0.0000
   134 H4      12.9194  19.0870  13.7575   H         1 RES1   0.0000
   135 C5      11.3577  20.3951  13.3895   C.3       1 RES1   0.0000
   136 H5A     11.0493  20.3976  14.3096   H         1 RES1   0.0000
   137 H5B     10.5818  20.4075  12.8100   H         1 RES1   0.0000
   138 C6      12.2157  21.6460  13.1308   C.3       1 RES1   0.0000
   139 H6A     11.6984  22.4443  13.3124   H         1 RES1   0.0000
   140 H6B     12.9891  21.6460  13.7177   H         1 RES1   0.0000
   141 N1      11.5268  13.5571  17.9574   N.2       1 RES1   0.0000
   142 C1       9.2115  13.7700  15.1965   C.ar      1 RES1   0.0000
   143 H1       8.6619  13.0587  15.4337   H         1 RES1   0.0000
   144 C2      10.3278  14.0659  15.9637   C.ar      1 RES1   0.0000
   145 C3      10.6315  13.2403  17.1397   C.2       1 RES1   0.0000
   146 H3      10.1466  12.4594  17.2840   H         1 RES1   0.0000
   147 C4      11.7407  12.7006  19.1225   C.3       1 RES1   0.0000
   148 H4      11.1115  11.9496  19.0870   H         1 RES1   0.0000
   149 C5      11.4795  13.5113  20.3951   C.3       1 RES1   0.0000
   150 H5A     10.5594  13.8197  20.3976   H         1 RES1   0.0000
   151 H5B     12.0590  14.2872  20.4075   H         1 RES1   0.0000
   152 C6      11.7382  12.6533  21.6460   C.3       1 RES1   0.0000
   153 H6A     11.5566  13.1706  22.4443   H         1 RES1   0.0000
   154 H6B     11.1513  11.8799  21.6460   H         1 RES1   0.0000
   155 N1      13.3422  11.3119  17.9574   N.2       1 RES1   0.0000
   156 C1      15.6575  11.0990  15.1965   C.ar      1 RES1   0.0000
   157 H1      16.2071  11.8103  15.4337   H         1 RES1   0.0000
   158 C2      14.5412  10.8031  15.9637   C.ar      1 RES1   0.0000
   159 C3      14.2375  11.6287  17.1397   C.2       1 RES1   0.0000
   160 H3      14.7224  12.4096  17.2840   H         1 RES1   0.0000
   161 C4      13.1283  12.1684  19.1225   C.3       1 RES1   0.0000
   162 H4      13.7575  12.9194  19.0870   H         1 RES1   0.0000
   163 C5      13.3895  11.3577  20.3951   C.3       1 RES1   0.0000
   164 H5A     14.3096  11.0493  20.3976   H         1 RES1   0.0000
   165 H5B     12.8100  10.5818  20.4075   H         1 RES1   0.0000
   166 C6      13.1308  12.2157  21.6460   C.3       1 RES1   0.0000
   167 H6A     13.3124  11.6984  22.4443   H         1 RES1   0.0000
   168 H6B     13.7177  12.9891  21.6460   H         1 RES1   0.0000
@<TRIPOS>BOND
     1     1     5    2
     2     1     7    1
     3     2     3    1
     4     2     4   ar
     5     2    32   ar
     6     4     5    1
     7     4    44   ar
     8     5     6    1
     9     7     8    1
    10     7     9    1
    11     7    21    1
    12     9    10    1
    13     9    11    1
    14     9    12    1
    15    12    13    1
    16    12    14    1
    17    12    26    1
    18    15    19    2
    19    15    21    1
    20    16    17    1
    21    16    18   ar
    22    16   102   ar
    23    18    19    1
    24    18    58   ar
    25    19    20    1
    26    21    22    1
    27    21    23    1
    28    23    24    1
    29    23    25    1
    30    23    26    1
    31    26    27    1
    32    26    28    1
    33    29    33    2
    34    29    35    1
    35    30    31    1
    36    30    32   ar
    37    30    46   ar
    38    32    33    1
    39    33    34    1
    40    35    36    1
    41    35    37    1
    42    35    77    1
    43    37    38    1
    44    37    39    1
    45    37    40    1
    46    40    41    1
    47    40    42    1
    48    40    82    1
    49    43    47    2
    50    43    49    1
    51    44    45    1
    52    44    46   ar
    53    46    47    1
    54    47    48    1
    55    49    50    1
    56    49    51    1
    57    49    91    1
    58    51    52    1
    59    51    53    1
    60    51    54    1
    61    54    55    1
    62    54    56    1
    63    54    96    1
    64    57    61    2
    65    57    63    1
    66    58    59    1
    67    58    60   ar
    68    60    61    1
    69    60   100   ar
    70    61    62    1
    71    63    64    1
    72    63    65    1
    73    63   133    1
    74    65    66    1
    75    65    67    1
    76    65    68    1
    77    68    69    1
    78    68    70    1
    79    68   138    1
    80    71    75    2
    81    71    77    1
    82    72    73    1
    83    72    74   ar
    84    72   130   ar
    85    74    75    1
    86    74   142   ar
    87    75    76    1
    88    77    78    1
    89    77    79    1
    90    79    80    1
    91    79    81    1
    92    79    82    1
    93    82    83    1
    94    82    84    1
    95    85    89    2
    96    85    91    1
    97    86    87    1
    98    86    88   ar
    99    86   158   ar
   100    88    89    1
   101    88   114   ar
   102    89    90    1
   103    91    92    1
   104    91    93    1
   105    93    94    1
   106    93    95    1
   107    93    96    1
   108    96    97    1
   109    96    98    1
   110    99   103    2
   111    99   105    1
   112   100   101    1
   113   100   102   ar
   114   102   103    1
   115   103   104    1
   116   105   106    1
   117   105   107    1
   118   105   119    1
   119   107   108    1
   120   107   109    1
   121   107   110    1
   122   110   111    1
   123   110   112    1
   124   110   124    1
   125   113   117    2
   126   113   119    1
   127   114   115    1
   128   114   116   ar
   129   116   117    1
   130   116   156   ar
   131   117   118    1
   132   119   120    1
   133   119   121    1
   134   121   122    1
   135   121   123    1
   136   121   124    1
   137   124   125    1
   138   124   126    1
   139   127   131    2
   140   127   133    1
   141   128   129    1
   142   128   130   ar
   143   128   144   ar
   144   130   131    1
   145   131   132    1
   146   133   134    1
   147   133   135    1
   148   135   136    1
   149   135   137    1
   150   135   138    1
   151   138   139    1
   152   138   140    1
   153   141   145    2
   154   141   147    1
   155   142   143    1
   156   142   144   ar
   157   144   145    1
   158   145   146    1
   159   147   148    1
   160   147   149    1
   161   147   161    1
   162   149   150    1
   163   149   151    1
   164   149   152    1
   165   152   153    1
   166   152   154    1
   167   152   166    1
   168   155   159    2
   169   155   161    1
   170   156   157    1
   171   156   158   ar
   172   158   159    1
   173   159   160    1
   174   161   162    1
   175   161   163    1
   176   163   164    1
   177   163   165    1
   178   163   166    1
   179   166   167    1
   180   166   168    1
@<TRIPOS>SUBSTRUCTURE
     1 RES1        1 GROUP             0 ****  ****    0  
@<TRIPOS>CRYSIN
   24.8690   24.8690   24.8690   90.0000   90.0000   90.0000   210     1
 

